!  Floats Input Parameters.
!
!svn $Id$
!========================================================= Hernan G. Arango ===
!  Copyright (c) 2002-2014 The ROMS/TOMS Group                                !
!    Licensed under a MIT/X style license                                     !
!    See License_ROMS.txt                                                     !
!==============================================================================
!                                                                             !
! Input parameters can be entered in ANY order, provided that the parameter   !
! KEYWORD (usually, upper case) is typed correctly followed by "="  or "=="   !
! symbols. Any comment lines are allowed and must begin with an exclamation   !
! mark (!) in column one.  Comments may  appear to the right of a parameter   !
! specification to improve documentation.  Comments will be ignored  during   !
! reading.  Blank lines are also allowed and ignored. Continuation lines in   !
! a parameter specification are allowed and must be preceded by a backslash   !
! (\).  In some instances, more than one value is required for a parameter.   !
! If fewer values are provided, the  last value  is assigned for the entire   !
! parameter array.  The multiplication symbol (*),  without blank spaces in   !
! between, is allowed for a parameter specification.  For example, in a two   !
! grids nested application:                                                   !
!                                                                             !
!    AKT_BAK == 2*1.0d-6  2*5.0d-6              ! m2/s                        !
!                                                                             !
! indicates that the first two entries of array AKT_BAK,  in fortran column-  !
! major order, will have the same value of "1.0d-6" for grid 1,  whereas the  !
! next two entries will have the same value of "5.0d-6" for grid 2.           !
!                                                                             !
! In multiple levels of nesting and/or multiple connected domains  step-ups,  !
! "Ngrids" entries are expected for some of these parameters.  In such case,  !
! the order of the entries for a parameter is extremely important.  It  must  !
! follow the same order (1:Ngrids) as in the state variable declaration. The  !
! USER may follow the above guidelines for specifying his/her values.  These  !
! parameters are marked by "==" plural symbol after the KEYWORD.              !
!                                                                             !
!==============================================================================
!
! Switch to control the computation of floats trajectories within nested
! and/or multiple connected grids, [1:Ngrids].
!
     Lfloats == T

! Switch to control the printing of floats positions to standard output
! file, [1:Ngrids].
!
      Fprint == T

! Flag indicating re-start from previous solution. If FRREC = 0, a new
! NetCDF output file is created.

       FRREC == 0

! If applicable, input script file name containing biological floats behavior
! model parameters.

     FBIONAM =  behavior_larvae.in

! Number of floats to release in each nested grid.  These values are
! essential because the FLOATS structure in "mod_floats" is dynamically
! allocated using these values, [1:Ngrids].

     NFLOATS == 10000

! Initial floats locations for all grids:
!
!   G      Nested grid number
!   C      Initial horizontal coordinate type (0: grid units, 1: spherical)
!   T      Float trajectory type (1: Lagrangian, 2: isobaric, 3: Geopotential)
!   N      Number floats to be released at (Fx0,Fy0,Fz0)
!   Ft0    Float release time (days) after model initialization
!   Fx0    Initial float X-location (grid units or longitude)
!   Fy0    Initial float Y-location (grid units or latitude)
!   Fz0    Initial float Z-location (grid units or depth)
!   Fdt    Float cluster release time interval (days)
!   Fdx    Float cluster X-distribution parameter
!   Fdy    Float cluster Y-distribution parameter
!   Fdz    Float cluster Z-distribution parameter

POS = G, C, T, N,   Ft0,     Fx0,    Fy0,    Fz0,    Fdt,    Fdx,    Fdy,   Fdz
1 1 1 1 4162.603472 123.945580 24.325210 -10.000000 0.000000 0.000000 0.000000 0.000000
1 1 1 1 4162.603472 123.945630 24.325210 -10.000000 0.000000 0.000000 0.000000 0.000000
1 1 1 1 4162.603472 123.945680 24.325210 -10.000000 0.000000 0.000000 0.000000 0.000000
1 1 1 1 4162.603472 123.945730 24.325210 -10.000000 0.000000 0.000000 0.000000 0.000000
1 1 1 1 4162.603472 123.945780 24.325210 -10.000000 0.000000 0.000000 0.000000 0.000000
1 1 1 1 4162.603472 123.945830 24.325210 -10.000000 0.000000 0.000000 0.000000 0.000000
1 1 1 1 4162.603472 123.945880 24.325210 -10.000000 0.000000 0.000000 0.000000 0.000000
1 1 1 1 4162.603472 123.945930 24.325210 -10.000000 0.000000 0.000000 0.000000 0.000000
1 1 1 1 4162.603472 123.945980 24.325210 -10.000000 0.000000 0.000000 0.000000 0.000000
1 1 1 1 4162.603472 123.946030 24.325210 -10.000000 0.000000 0.000000 0.000000 0.000000
1 1 1 1 4162.603472 123.946080 24.325210 -10.000000 0.000000 0.000000 0.000000 0.000000
1 1 1 1 4162.603472 123.946130 24.325210 -10.000000 0.000000 0.000000 0.000000 0.000000
1 1 1 1 4162.603472 123.946180 24.325210 -10.000000 0.000000 0.000000 0.000000 0.000000
1 1 1 1 4162.603472 123.946230 24.325210 -10.000000 0.000000 0.000000 0.000000 0.000000
1 1 1 1 4162.603472 123.946280 24.325210 -10.000000 0.000000 0.000000 0.000000 0.000000
1 1 1 1 4162.603472 123.946330 24.325210 -10.000000 0.000000 0.000000 0.000000 0.000000
1 1 1 1 4162.603472 123.946380 24.325210 -10.000000 0.000000 0.000000 0.000000 0.000000
1 1 1 1 4162.603472 123.946430 24.325210 -10.000000 0.000000 0.000000 0.000000 0.000000
1 1 1 1 4162.603472 123.946480 24.325210 -10.000000 0.000000 0.000000 0.000000 0.000000
1 1 1 1 4162.603472 123.946530 24.325210 -10.000000 0.000000 0.000000 0.000000 0.000000
1 1 1 1 4162.603472 123.946580 24.325210 -10.000000 0.000000 0.000000 0.000000 0.000000
1 1 1 1 4162.603472 123.946630 24.325210 -10.000000 0.000000 0.000000 0.000000 0.000000
1 1 1 1 4162.603472 123.946680 24.325210 -10.000000 0.000000 0.000000 0.000000 0.000000
1 1 1 1 4162.603472 123.946730 24.325210 -10.000000 0.000000 0.000000 0.000000 0.000000
1 1 1 1 4162.603472 123.946780 24.325210 -10.000000 0.000000 0.000000 0.000000 0.000000
1 1 1 1 4162.603472 123.946830 24.325210 -10.000000 0.000000 0.000000 0.000000 0.000000
1 1 1 1 4162.603472 123.946880 24.325210 -10.000000 0.000000 0.000000 0.000000 0.000000
1 1 1 1 4162.603472 123.946930 24.325210 -10.000000 0.000000 0.000000 0.000000 0.000000
1 1 1 1 4162.603472 123.946980 24.325210 -10.000000 0.000000 0.000000 0.000000 0.000000
1 1 1 1 4162.603472 123.947030 24.325210 -10.000000 0.000000 0.000000 0.000000 0.000000
1 1 1 1 4162.603472 123.947080 24.325210 -10.000000 0.000000 0.000000 0.000000 0.000000
1 1 1 1 4162.603472 123.947130 24.325210 -10.000000 0.000000 0.000000 0.000000 0.000000
1 1 1 1 4162.603472 123.947180 24.325210 -10.000000 0.000000 0.000000 0.000000 0.000000
1 1 1 1 4162.603472 123.947230 24.325210 -10.000000 0.000000 0.000000 0.000000 0.000000
1 1 1 1 4162.603472 123.947280 24.325210 -10.000000 0.000000 0.000000 0.000000 0.000000
1 1 1 1 4162.603472 123.947330 24.325210 -10.000000 0.000000 0.000000 0.000000 0.000000
1 1 1 1 4162.603472 123.947380 24.325210 -10.000000 0.000000 0.000000 0.000000 0.000000
1 1 1 1 4162.603472 123.947430 24.325210 -10.000000 0.000000 0.000000 0.000000 0.000000
1 1 1 1 4162.603472 123.947480 24.325210 -10.000000 0.000000 0.000000 0.000000 0.000000
1 1 1 1 4162.603472 123.947530 24.325210 -10.000000 0.000000 0.000000 0.000000 0.000000
1 1 1 1 4162.603472 123.947580 24.325210 -10.000000 0.000000 0.000000 0.000000 0.000000
1 1 1 1 4162.603472 123.947630 24.325210 -10.000000 0.000000 0.000000 0.000000 0.000000
1 1 1 1 4162.603472 123.947680 24.325210 -10.000000 0.000000 0.000000 0.000000 0.000000
1 1 1 1 4162.603472 123.947730 24.325210 -10.000000 0.000000 0.000000 0.000000 0.000000
1 1 1 1 4162.603472 123.947780 24.325210 -10.000000 0.000000 0.000000 0.000000 0.000000
1 1 1 1 4162.603472 123.947830 24.325210 -10.000000 0.000000 0.000000 0.000000 0.000000
1 1 1 1 4162.603472 123.947880 24.325210 -10.000000 0.000000 0.000000 0.000000 0.000000
1 1 1 1 4162.603472 123.947930 24.325210 -10.000000 0.000000 0.000000 0.000000 0.000000
1 1 1 1 4162.603472 123.947980 24.325210 -10.000000 0.000000 0.000000 0.000000 0.000000
1 1 1 1 4162.603472 123.948030 24.325210 -10.000000 0.000000 0.000000 0.000000 0.000000
1 1 1 1 4162.603472 123.948080 24.325210 -10.000000 0.000000 0.000000 0.000000 0.000000
1 1 1 1 4162.603472 123.948130 24.325210 -10.000000 0.000000 0.000000 0.000000 0.000000
1 1 1 1 4162.603472 123.948180 24.325210 -10.000000 0.000000 0.000000 0.000000 0.000000
1 1 1 1 4162.603472 123.948230 24.325210 -10.000000 0.000000 0.000000 0.000000 0.000000
1 1 1 1 4162.603472 123.948280 24.325210 -10.000000 0.000000 0.000000 0.000000 0.000000
1 1 1 1 4162.603472 123.948330 24.325210 -10.000000 0.000000 0.000000 0.000000 0.000000
1 1 1 1 4162.603472 123.948380 24.325210 -10.000000 0.000000 0.000000 0.000000 0.000000
1 1 1 1 4162.603472 123.948430 24.325210 -10.000000 0.000000 0.000000 0.000000 0.000000
1 1 1 1 4162.603472 123.948480 24.325210 -10.000000 0.000000 0.000000 0.000000 0.000000
1 1 1 1 4162.603472 123.948530 24.325210 -10.000000 0.000000 0.000000 0.000000 0.000000
1 1 1 1 4162.603472 123.948580 24.325210 -10.000000 0.000000 0.000000 0.000000 0.000000
1 1 1 1 4162.603472 123.948630 24.325210 -10.000000 0.000000 0.000000 0.000000 0.000000
1 1 1 1 4162.603472 123.948680 24.325210 -10.000000 0.000000 0.000000 0.000000 0.000000
1 1 1 1 4162.603472 123.948730 24.325210 -10.000000 0.000000 0.000000 0.000000 0.000000
1 1 1 1 4162.603472 123.948780 24.325210 -10.000000 0.000000 0.000000 0.000000 0.000000
1 1 1 1 4162.603472 123.948830 24.325210 -10.000000 0.000000 0.000000 0.000000 0.000000
1 1 1 1 4162.603472 123.948880 24.325210 -10.000000 0.000000 0.000000 0.000000 0.000000
1 1 1 1 4162.603472 123.948930 24.325210 -10.000000 0.000000 0.000000 0.000000 0.000000
1 1 1 1 4162.603472 123.948980 24.325210 -10.000000 0.000000 0.000000 0.000000 0.000000
1 1 1 1 4162.603472 123.949030 24.325210 -10.000000 0.000000 0.000000 0.000000 0.000000
1 1 1 1 4162.603472 123.949080 24.325210 -10.000000 0.000000 0.000000 0.000000 0.000000
1 1 1 1 4162.603472 123.949130 24.325210 -10.000000 0.000000 0.000000 0.000000 0.000000
1 1 1 1 4162.603472 123.949180 24.325210 -10.000000 0.000000 0.000000 0.000000 0.000000
1 1 1 1 4162.603472 123.949230 24.325210 -10.000000 0.000000 0.000000 0.000000 0.000000
1 1 1 1 4162.603472 123.949280 24.325210 -10.000000 0.000000 0.000000 0.000000 0.000000
1 1 1 1 4162.603472 123.949330 24.325210 -10.000000 0.000000 0.000000 0.000000 0.000000
1 1 1 1 4162.603472 123.949380 24.325210 -10.000000 0.000000 0.000000 0.000000 0.000000
1 1 1 1 4162.603472 123.949430 24.325210 -10.000000 0.000000 0.000000 0.000000 0.000000
1 1 1 1 4162.603472 123.949480 24.325210 -10.000000 0.000000 0.000000 0.000000 0.000000
1 1 1 1 4162.603472 123.949530 24.325210 -10.000000 0.000000 0.000000 0.000000 0.000000
1 1 1 1 4162.603472 123.949580 24.325210 -10.000000 0.000000 0.000000 0.000000 0.000000
1 1 1 1 4162.603472 123.949630 24.325210 -10.000000 0.000000 0.000000 0.000000 0.000000
1 1 1 1 4162.603472 123.949680 24.325210 -10.000000 0.000000 0.000000 0.000000 0.000000
1 1 1 1 4162.603472 123.949730 24.325210 -10.000000 0.000000 0.000000 0.000000 0.000000
1 1 1 1 4162.603472 123.949780 24.325210 -10.000000 0.000000 0.000000 0.000000 0.000000
1 1 1 1 4162.603472 123.949830 24.325210 -10.000000 0.000000 0.000000 0.000000 0.000000
1 1 1 1 4162.603472 123.949880 24.325210 -10.000000 0.000000 0.000000 0.000000 0.000000
1 1 1 1 4162.603472 123.949930 24.325210 -10.000000 0.000000 0.000000 0.000000 0.000000
1 1 1 1 4162.603472 123.949980 24.325210 -10.000000 0.000000 0.000000 0.000000 0.000000
1 1 1 1 4162.603472 123.950030 24.325210 -10.000000 0.000000 0.000000 0.000000 0.000000
1 1 1 1 4162.603472 123.950080 24.325210 -10.000000 0.000000 0.000000 0.000000 0.000000
1 1 1 1 4162.603472 123.950130 24.325210 -10.000000 0.000000 0.000000 0.000000 0.000000
1 1 1 1 4162.603472 123.950180 24.325210 -10.000000 0.000000 0.000000 0.000000 0.000000
1 1 1 1 4162.603472 123.950230 24.325210 -10.000000 0.000000 0.000000 0.000000 0.000000
1 1 1 1 4162.603472 123.950280 24.325210 -10.000000 0.000000 0.000000 0.000000 0.000000
1 1 1 1 4162.603472 123.950330 24.325210 -10.000000 0.000000 0.000000 0.000000 0.000000
1 1 1 1 4162.603472 123.950380 24.325210 -10.000000 0.000000 0.000000 0.000000 0.000000
1 1 1 1 4162.603472 123.950430 24.325210 -10.000000 0.000000 0.000000 0.000000 0.000000
1 1 1 1 4162.603472 123.950480 24.325210 -10.000000 0.000000 0.000000 0.000000 0.000000
1 1 1 1 4162.603472 123.950530 24.325210 -10.000000 0.000000 0.000000 0.000000 0.000000
1 1 1 1 4162.603472 123.945580 24.325260 -10.000000 0.000000 0.000000 0.000000 0.000000
1 1 1 1 4162.603472 123.945630 24.325260 -10.000000 0.000000 0.000000 0.000000 0.000000
1 1 1 1 4162.603472 123.945680 24.325260 -10.000000 0.000000 0.000000 0.000000 0.000000
1 1 1 1 4162.603472 123.945730 24.325260 -10.000000 0.000000 0.000000 0.000000 0.000000
1 1 1 1 4162.603472 123.945780 24.325260 -10.000000 0.000000 0.000000 0.000000 0.000000
1 1 1 1 4162.603472 123.945830 24.325260 -10.000000 0.000000 0.000000 0.000000 0.000000
1 1 1 1 4162.603472 123.945880 24.325260 -10.000000 0.000000 0.000000 0.000000 0.000000
1 1 1 1 4162.603472 123.945930 24.325260 -10.000000 0.000000 0.000000 0.000000 0.000000
1 1 1 1 4162.603472 123.945980 24.325260 -10.000000 0.000000 0.000000 0.000000 0.000000
1 1 1 1 4162.603472 123.946030 24.325260 -10.000000 0.000000 0.000000 0.000000 0.000000
1 1 1 1 4162.603472 123.946080 24.325260 -10.000000 0.000000 0.000000 0.000000 0.000000
1 1 1 1 4162.603472 123.946130 24.325260 -10.000000 0.000000 0.000000 0.000000 0.000000
1 1 1 1 4162.603472 123.946180 24.325260 -10.000000 0.000000 0.000000 0.000000 0.000000
1 1 1 1 4162.603472 123.946230 24.325260 -10.000000 0.000000 0.000000 0.000000 0.000000
1 1 1 1 4162.603472 123.946280 24.325260 -10.000000 0.000000 0.000000 0.000000 0.000000
1 1 1 1 4162.603472 123.946330 24.325260 -10.000000 0.000000 0.000000 0.000000 0.000000
1 1 1 1 4162.603472 123.946380 24.325260 -10.000000 0.000000 0.000000 0.000000 0.000000
1 1 1 1 4162.603472 123.946430 24.325260 -10.000000 0.000000 0.000000 0.000000 0.000000
1 1 1 1 4162.603472 123.946480 24.325260 -10.000000 0.000000 0.000000 0.000000 0.000000
1 1 1 1 4162.603472 123.946530 24.325260 -10.000000 0.000000 0.000000 0.000000 0.000000
1 1 1 1 4162.603472 123.946580 24.325260 -10.000000 0.000000 0.000000 0.000000 0.000000
1 1 1 1 4162.603472 123.946630 24.325260 -10.000000 0.000000 0.000000 0.000000 0.000000
1 1 1 1 4162.603472 123.946680 24.325260 -10.000000 0.000000 0.000000 0.000000 0.000000
1 1 1 1 4162.603472 123.946730 24.325260 -10.000000 0.000000 0.000000 0.000000 0.000000
1 1 1 1 4162.603472 123.946780 24.325260 -10.000000 0.000000 0.000000 0.000000 0.000000
1 1 1 1 4162.603472 123.946830 24.325260 -10.000000 0.000000 0.000000 0.000000 0.000000
1 1 1 1 4162.603472 123.946880 24.325260 -10.000000 0.000000 0.000000 0.000000 0.000000
1 1 1 1 4162.603472 123.946930 24.325260 -10.000000 0.000000 0.000000 0.000000 0.000000
1 1 1 1 4162.603472 123.946980 24.325260 -10.000000 0.000000 0.000000 0.000000 0.000000
1 1 1 1 4162.603472 123.947030 24.325260 -10.000000 0.000000 0.000000 0.000000 0.000000
1 1 1 1 4162.603472 123.947080 24.325260 -10.000000 0.000000 0.000000 0.000000 0.000000
1 1 1 1 4162.603472 123.947130 24.325260 -10.000000 0.000000 0.000000 0.000000 0.000000
1 1 1 1 4162.603472 123.947180 24.325260 -10.000000 0.000000 0.000000 0.000000 0.000000
1 1 1 1 4162.603472 123.947230 24.325260 -10.000000 0.000000 0.000000 0.000000 0.000000
1 1 1 1 4162.603472 123.947280 24.325260 -10.000000 0.000000 0.000000 0.000000 0.000000
1 1 1 1 4162.603472 123.947330 24.325260 -10.000000 0.000000 0.000000 0.000000 0.000000
1 1 1 1 4162.603472 123.947380 24.325260 -10.000000 0.000000 0.000000 0.000000 0.000000
1 1 1 1 4162.603472 123.947430 24.325260 -10.000000 0.000000 0.000000 0.000000 0.000000
1 1 1 1 4162.603472 123.947480 24.325260 -10.000000 0.000000 0.000000 0.000000 0.000000
1 1 1 1 4162.603472 123.947530 24.325260 -10.000000 0.000000 0.000000 0.000000 0.000000
1 1 1 1 4162.603472 123.947580 24.325260 -10.000000 0.000000 0.000000 0.000000 0.000000
1 1 1 1 4162.603472 123.947630 24.325260 -10.000000 0.000000 0.000000 0.000000 0.000000
1 1 1 1 4162.603472 123.947680 24.325260 -10.000000 0.000000 0.000000 0.000000 0.000000
1 1 1 1 4162.603472 123.947730 24.325260 -10.000000 0.000000 0.000000 0.000000 0.000000
1 1 1 1 4162.603472 123.947780 24.325260 -10.000000 0.000000 0.000000 0.000000 0.000000
1 1 1 1 4162.603472 123.947830 24.325260 -10.000000 0.000000 0.000000 0.000000 0.000000
1 1 1 1 4162.603472 123.947880 24.325260 -10.000000 0.000000 0.000000 0.000000 0.000000
1 1 1 1 4162.603472 123.947930 24.325260 -10.000000 0.000000 0.000000 0.000000 0.000000
1 1 1 1 4162.603472 123.947980 24.325260 -10.000000 0.000000 0.000000 0.000000 0.000000
1 1 1 1 4162.603472 123.948030 24.325260 -10.000000 0.000000 0.000000 0.000000 0.000000
1 1 1 1 4162.603472 123.948080 24.325260 -10.000000 0.000000 0.000000 0.000000 0.000000
1 1 1 1 4162.603472 123.948130 24.325260 -10.000000 0.000000 0.000000 0.000000 0.000000
1 1 1 1 4162.603472 123.948180 24.325260 -10.000000 0.000000 0.000000 0.000000 0.000000
1 1 1 1 4162.603472 123.948230 24.325260 -10.000000 0.000000 0.000000 0.000000 0.000000
1 1 1 1 4162.603472 123.948280 24.325260 -10.000000 0.000000 0.000000 0.000000 0.000000
1 1 1 1 4162.603472 123.948330 24.325260 -10.000000 0.000000 0.000000 0.000000 0.000000
1 1 1 1 4162.603472 123.948380 24.325260 -10.000000 0.000000 0.000000 0.000000 0.000000
1 1 1 1 4162.603472 123.948430 24.325260 -10.000000 0.000000 0.000000 0.000000 0.000000
1 1 1 1 4162.603472 123.948480 24.325260 -10.000000 0.000000 0.000000 0.000000 0.000000
1 1 1 1 4162.603472 123.948530 24.325260 -10.000000 0.000000 0.000000 0.000000 0.000000
1 1 1 1 4162.603472 123.948580 24.325260 -10.000000 0.000000 0.000000 0.000000 0.000000
1 1 1 1 4162.603472 123.948630 24.325260 -10.000000 0.000000 0.000000 0.000000 0.000000
1 1 1 1 4162.603472 123.948680 24.325260 -10.000000 0.000000 0.000000 0.000000 0.000000
1 1 1 1 4162.603472 123.948730 24.325260 -10.000000 0.000000 0.000000 0.000000 0.000000
1 1 1 1 4162.603472 123.948780 24.325260 -10.000000 0.000000 0.000000 0.000000 0.000000
1 1 1 1 4162.603472 123.948830 24.325260 -10.000000 0.000000 0.000000 0.000000 0.000000
1 1 1 1 4162.603472 123.948880 24.325260 -10.000000 0.000000 0.000000 0.000000 0.000000
1 1 1 1 4162.603472 123.948930 24.325260 -10.000000 0.000000 0.000000 0.000000 0.000000
1 1 1 1 4162.603472 123.948980 24.325260 -10.000000 0.000000 0.000000 0.000000 0.000000
1 1 1 1 4162.603472 123.949030 24.325260 -10.000000 0.000000 0.000000 0.000000 0.000000
1 1 1 1 4162.603472 123.949080 24.325260 -10.000000 0.000000 0.000000 0.000000 0.000000
1 1 1 1 4162.603472 123.949130 24.325260 -10.000000 0.000000 0.000000 0.000000 0.000000
1 1 1 1 4162.603472 123.949180 24.325260 -10.000000 0.000000 0.000000 0.000000 0.000000
1 1 1 1 4162.603472 123.949230 24.325260 -10.000000 0.000000 0.000000 0.000000 0.000000
1 1 1 1 4162.603472 123.949280 24.325260 -10.000000 0.000000 0.000000 0.000000 0.000000
1 1 1 1 4162.603472 123.949330 24.325260 -10.000000 0.000000 0.000000 0.000000 0.000000
1 1 1 1 4162.603472 123.949380 24.325260 -10.000000 0.000000 0.000000 0.000000 0.000000
1 1 1 1 4162.603472 123.949430 24.325260 -10.000000 0.000000 0.000000 0.000000 0.000000
1 1 1 1 4162.603472 123.949480 24.325260 -10.000000 0.000000 0.000000 0.000000 0.000000
1 1 1 1 4162.603472 123.949530 24.325260 -10.000000 0.000000 0.000000 0.000000 0.000000
1 1 1 1 4162.603472 123.949580 24.325260 -10.000000 0.000000 0.000000 0.000000 0.000000
1 1 1 1 4162.603472 123.949630 24.325260 -10.000000 0.000000 0.000000 0.000000 0.000000
1 1 1 1 4162.603472 123.949680 24.325260 -10.000000 0.000000 0.000000 0.000000 0.000000
1 1 1 1 4162.603472 123.949730 24.325260 -10.000000 0.000000 0.000000 0.000000 0.000000
1 1 1 1 4162.603472 123.949780 24.325260 -10.000000 0.000000 0.000000 0.000000 0.000000
1 1 1 1 4162.603472 123.949830 24.325260 -10.000000 0.000000 0.000000 0.000000 0.000000
1 1 1 1 4162.603472 123.949880 24.325260 -10.000000 0.000000 0.000000 0.000000 0.000000
1 1 1 1 4162.603472 123.949930 24.325260 -10.000000 0.000000 0.000000 0.000000 0.000000
1 1 1 1 4162.603472 123.949980 24.325260 -10.000000 0.000000 0.000000 0.000000 0.000000
1 1 1 1 4162.603472 123.950030 24.325260 -10.000000 0.000000 0.000000 0.000000 0.000000
1 1 1 1 4162.603472 123.950080 24.325260 -10.000000 0.000000 0.000000 0.000000 0.000000
1 1 1 1 4162.603472 123.950130 24.325260 -10.000000 0.000000 0.000000 0.000000 0.000000
1 1 1 1 4162.603472 123.950180 24.325260 -10.000000 0.000000 0.000000 0.000000 0.000000
1 1 1 1 4162.603472 123.950230 24.325260 -10.000000 0.000000 0.000000 0.000000 0.000000
1 1 1 1 4162.603472 123.950280 24.325260 -10.000000 0.000000 0.000000 0.000000 0.000000
1 1 1 1 4162.603472 123.950330 24.325260 -10.000000 0.000000 0.000000 0.000000 0.000000
1 1 1 1 4162.603472 123.950380 24.325260 -10.000000 0.000000 0.000000 0.000000 0.000000
1 1 1 1 4162.603472 123.950430 24.325260 -10.000000 0.000000 0.000000 0.000000 0.000000
1 1 1 1 4162.603472 123.950480 24.325260 -10.000000 0.000000 0.000000 0.000000 0.000000
1 1 1 1 4162.603472 123.950530 24.325260 -10.000000 0.000000 0.000000 0.000000 0.000000
1 1 1 1 4162.603472 123.945580 24.325310 -10.000000 0.000000 0.000000 0.000000 0.000000
1 1 1 1 4162.603472 123.945630 24.325310 -10.000000 0.000000 0.000000 0.000000 0.000000
1 1 1 1 4162.603472 123.945680 24.325310 -10.000000 0.000000 0.000000 0.000000 0.000000
1 1 1 1 4162.603472 123.945730 24.325310 -10.000000 0.000000 0.000000 0.000000 0.000000
1 1 1 1 4162.603472 123.945780 24.325310 -10.000000 0.000000 0.000000 0.000000 0.000000
1 1 1 1 4162.603472 123.945830 24.325310 -10.000000 0.000000 0.000000 0.000000 0.000000
1 1 1 1 4162.603472 123.945880 24.325310 -10.000000 0.000000 0.000000 0.000000 0.000000
1 1 1 1 4162.603472 123.945930 24.325310 -10.000000 0.000000 0.000000 0.000000 0.000000
1 1 1 1 4162.603472 123.945980 24.325310 -10.000000 0.000000 0.000000 0.000000 0.000000
1 1 1 1 4162.603472 123.946030 24.325310 -10.000000 0.000000 0.000000 0.000000 0.000000
1 1 1 1 4162.603472 123.946080 24.325310 -10.000000 0.000000 0.000000 0.000000 0.000000
1 1 1 1 4162.603472 123.946130 24.325310 -10.000000 0.000000 0.000000 0.000000 0.000000
1 1 1 1 4162.603472 123.946180 24.325310 -10.000000 0.000000 0.000000 0.000000 0.000000
1 1 1 1 4162.603472 123.946230 24.325310 -10.000000 0.000000 0.000000 0.000000 0.000000
1 1 1 1 4162.603472 123.946280 24.325310 -10.000000 0.000000 0.000000 0.000000 0.000000
1 1 1 1 4162.603472 123.946330 24.325310 -10.000000 0.000000 0.000000 0.000000 0.000000
1 1 1 1 4162.603472 123.946380 24.325310 -10.000000 0.000000 0.000000 0.000000 0.000000
1 1 1 1 4162.603472 123.946430 24.325310 -10.000000 0.000000 0.000000 0.000000 0.000000
1 1 1 1 4162.603472 123.946480 24.325310 -10.000000 0.000000 0.000000 0.000000 0.000000
1 1 1 1 4162.603472 123.946530 24.325310 -10.000000 0.000000 0.000000 0.000000 0.000000
1 1 1 1 4162.603472 123.946580 24.325310 -10.000000 0.000000 0.000000 0.000000 0.000000
1 1 1 1 4162.603472 123.946630 24.325310 -10.000000 0.000000 0.000000 0.000000 0.000000
1 1 1 1 4162.603472 123.946680 24.325310 -10.000000 0.000000 0.000000 0.000000 0.000000
1 1 1 1 4162.603472 123.946730 24.325310 -10.000000 0.000000 0.000000 0.000000 0.000000
1 1 1 1 4162.603472 123.946780 24.325310 -10.000000 0.000000 0.000000 0.000000 0.000000
1 1 1 1 4162.603472 123.946830 24.325310 -10.000000 0.000000 0.000000 0.000000 0.000000
1 1 1 1 4162.603472 123.946880 24.325310 -10.000000 0.000000 0.000000 0.000000 0.000000
1 1 1 1 4162.603472 123.946930 24.325310 -10.000000 0.000000 0.000000 0.000000 0.000000
1 1 1 1 4162.603472 123.946980 24.325310 -10.000000 0.000000 0.000000 0.000000 0.000000
1 1 1 1 4162.603472 123.947030 24.325310 -10.000000 0.000000 0.000000 0.000000 0.000000
1 1 1 1 4162.603472 123.947080 24.325310 -10.000000 0.000000 0.000000 0.000000 0.000000
1 1 1 1 4162.603472 123.947130 24.325310 -10.000000 0.000000 0.000000 0.000000 0.000000
1 1 1 1 4162.603472 123.947180 24.325310 -10.000000 0.000000 0.000000 0.000000 0.000000
1 1 1 1 4162.603472 123.947230 24.325310 -10.000000 0.000000 0.000000 0.000000 0.000000
1 1 1 1 4162.603472 123.947280 24.325310 -10.000000 0.000000 0.000000 0.000000 0.000000
1 1 1 1 4162.603472 123.947330 24.325310 -10.000000 0.000000 0.000000 0.000000 0.000000
1 1 1 1 4162.603472 123.947380 24.325310 -10.000000 0.000000 0.000000 0.000000 0.000000
1 1 1 1 4162.603472 123.947430 24.325310 -10.000000 0.000000 0.000000 0.000000 0.000000
1 1 1 1 4162.603472 123.947480 24.325310 -10.000000 0.000000 0.000000 0.000000 0.000000
1 1 1 1 4162.603472 123.947530 24.325310 -10.000000 0.000000 0.000000 0.000000 0.000000
1 1 1 1 4162.603472 123.947580 24.325310 -10.000000 0.000000 0.000000 0.000000 0.000000
1 1 1 1 4162.603472 123.947630 24.325310 -10.000000 0.000000 0.000000 0.000000 0.000000
1 1 1 1 4162.603472 123.947680 24.325310 -10.000000 0.000000 0.000000 0.000000 0.000000
1 1 1 1 4162.603472 123.947730 24.325310 -10.000000 0.000000 0.000000 0.000000 0.000000
1 1 1 1 4162.603472 123.947780 24.325310 -10.000000 0.000000 0.000000 0.000000 0.000000
1 1 1 1 4162.603472 123.947830 24.325310 -10.000000 0.000000 0.000000 0.000000 0.000000
1 1 1 1 4162.603472 123.947880 24.325310 -10.000000 0.000000 0.000000 0.000000 0.000000
1 1 1 1 4162.603472 123.947930 24.325310 -10.000000 0.000000 0.000000 0.000000 0.000000
1 1 1 1 4162.603472 123.947980 24.325310 -10.000000 0.000000 0.000000 0.000000 0.000000
1 1 1 1 4162.603472 123.948030 24.325310 -10.000000 0.000000 0.000000 0.000000 0.000000
1 1 1 1 4162.603472 123.948080 24.325310 -10.000000 0.000000 0.000000 0.000000 0.000000
1 1 1 1 4162.603472 123.948130 24.325310 -10.000000 0.000000 0.000000 0.000000 0.000000
1 1 1 1 4162.603472 123.948180 24.325310 -10.000000 0.000000 0.000000 0.000000 0.000000
1 1 1 1 4162.603472 123.948230 24.325310 -10.000000 0.000000 0.000000 0.000000 0.000000
1 1 1 1 4162.603472 123.948280 24.325310 -10.000000 0.000000 0.000000 0.000000 0.000000
1 1 1 1 4162.603472 123.948330 24.325310 -10.000000 0.000000 0.000000 0.000000 0.000000
1 1 1 1 4162.603472 123.948380 24.325310 -10.000000 0.000000 0.000000 0.000000 0.000000
1 1 1 1 4162.603472 123.948430 24.325310 -10.000000 0.000000 0.000000 0.000000 0.000000
1 1 1 1 4162.603472 123.948480 24.325310 -10.000000 0.000000 0.000000 0.000000 0.000000
1 1 1 1 4162.603472 123.948530 24.325310 -10.000000 0.000000 0.000000 0.000000 0.000000
1 1 1 1 4162.603472 123.948580 24.325310 -10.000000 0.000000 0.000000 0.000000 0.000000
1 1 1 1 4162.603472 123.948630 24.325310 -10.000000 0.000000 0.000000 0.000000 0.000000
1 1 1 1 4162.603472 123.948680 24.325310 -10.000000 0.000000 0.000000 0.000000 0.000000
1 1 1 1 4162.603472 123.948730 24.325310 -10.000000 0.000000 0.000000 0.000000 0.000000
1 1 1 1 4162.603472 123.948780 24.325310 -10.000000 0.000000 0.000000 0.000000 0.000000
1 1 1 1 4162.603472 123.948830 24.325310 -10.000000 0.000000 0.000000 0.000000 0.000000
1 1 1 1 4162.603472 123.948880 24.325310 -10.000000 0.000000 0.000000 0.000000 0.000000
1 1 1 1 4162.603472 123.948930 24.325310 -10.000000 0.000000 0.000000 0.000000 0.000000
1 1 1 1 4162.603472 123.948980 24.325310 -10.000000 0.000000 0.000000 0.000000 0.000000
1 1 1 1 4162.603472 123.949030 24.325310 -10.000000 0.000000 0.000000 0.000000 0.000000
1 1 1 1 4162.603472 123.949080 24.325310 -10.000000 0.000000 0.000000 0.000000 0.000000
1 1 1 1 4162.603472 123.949130 24.325310 -10.000000 0.000000 0.000000 0.000000 0.000000
1 1 1 1 4162.603472 123.949180 24.325310 -10.000000 0.000000 0.000000 0.000000 0.000000
1 1 1 1 4162.603472 123.949230 24.325310 -10.000000 0.000000 0.000000 0.000000 0.000000
1 1 1 1 4162.603472 123.949280 24.325310 -10.000000 0.000000 0.000000 0.000000 0.000000
1 1 1 1 4162.603472 123.949330 24.325310 -10.000000 0.000000 0.000000 0.000000 0.000000
1 1 1 1 4162.603472 123.949380 24.325310 -10.000000 0.000000 0.000000 0.000000 0.000000
1 1 1 1 4162.603472 123.949430 24.325310 -10.000000 0.000000 0.000000 0.000000 0.000000
1 1 1 1 4162.603472 123.949480 24.325310 -10.000000 0.000000 0.000000 0.000000 0.000000
1 1 1 1 4162.603472 123.949530 24.325310 -10.000000 0.000000 0.000000 0.000000 0.000000
1 1 1 1 4162.603472 123.949580 24.325310 -10.000000 0.000000 0.000000 0.000000 0.000000
1 1 1 1 4162.603472 123.949630 24.325310 -10.000000 0.000000 0.000000 0.000000 0.000000
1 1 1 1 4162.603472 123.949680 24.325310 -10.000000 0.000000 0.000000 0.000000 0.000000
1 1 1 1 4162.603472 123.949730 24.325310 -10.000000 0.000000 0.000000 0.000000 0.000000
1 1 1 1 4162.603472 123.949780 24.325310 -10.000000 0.000000 0.000000 0.000000 0.000000
1 1 1 1 4162.603472 123.949830 24.325310 -10.000000 0.000000 0.000000 0.000000 0.000000
1 1 1 1 4162.603472 123.949880 24.325310 -10.000000 0.000000 0.000000 0.000000 0.000000
1 1 1 1 4162.603472 123.949930 24.325310 -10.000000 0.000000 0.000000 0.000000 0.000000
1 1 1 1 4162.603472 123.949980 24.325310 -10.000000 0.000000 0.000000 0.000000 0.000000
1 1 1 1 4162.603472 123.950030 24.325310 -10.000000 0.000000 0.000000 0.000000 0.000000
1 1 1 1 4162.603472 123.950080 24.325310 -10.000000 0.000000 0.000000 0.000000 0.000000
1 1 1 1 4162.603472 123.950130 24.325310 -10.000000 0.000000 0.000000 0.000000 0.000000
1 1 1 1 4162.603472 123.950180 24.325310 -10.000000 0.000000 0.000000 0.000000 0.000000
1 1 1 1 4162.603472 123.950230 24.325310 -10.000000 0.000000 0.000000 0.000000 0.000000
1 1 1 1 4162.603472 123.950280 24.325310 -10.000000 0.000000 0.000000 0.000000 0.000000
1 1 1 1 4162.603472 123.950330 24.325310 -10.000000 0.000000 0.000000 0.000000 0.000000
1 1 1 1 4162.603472 123.950380 24.325310 -10.000000 0.000000 0.000000 0.000000 0.000000
1 1 1 1 4162.603472 123.950430 24.325310 -10.000000 0.000000 0.000000 0.000000 0.000000
1 1 1 1 4162.603472 123.950480 24.325310 -10.000000 0.000000 0.000000 0.000000 0.000000
1 1 1 1 4162.603472 123.950530 24.325310 -10.000000 0.000000 0.000000 0.000000 0.000000
1 1 1 1 4162.603472 123.945580 24.325360 -10.000000 0.000000 0.000000 0.000000 0.000000
1 1 1 1 4162.603472 123.945630 24.325360 -10.000000 0.000000 0.000000 0.000000 0.000000
1 1 1 1 4162.603472 123.945680 24.325360 -10.000000 0.000000 0.000000 0.000000 0.000000
1 1 1 1 4162.603472 123.945730 24.325360 -10.000000 0.000000 0.000000 0.000000 0.000000
1 1 1 1 4162.603472 123.945780 24.325360 -10.000000 0.000000 0.000000 0.000000 0.000000
1 1 1 1 4162.603472 123.945830 24.325360 -10.000000 0.000000 0.000000 0.000000 0.000000
1 1 1 1 4162.603472 123.945880 24.325360 -10.000000 0.000000 0.000000 0.000000 0.000000
1 1 1 1 4162.603472 123.945930 24.325360 -10.000000 0.000000 0.000000 0.000000 0.000000
1 1 1 1 4162.603472 123.945980 24.325360 -10.000000 0.000000 0.000000 0.000000 0.000000
1 1 1 1 4162.603472 123.946030 24.325360 -10.000000 0.000000 0.000000 0.000000 0.000000
1 1 1 1 4162.603472 123.946080 24.325360 -10.000000 0.000000 0.000000 0.000000 0.000000
1 1 1 1 4162.603472 123.946130 24.325360 -10.000000 0.000000 0.000000 0.000000 0.000000
1 1 1 1 4162.603472 123.946180 24.325360 -10.000000 0.000000 0.000000 0.000000 0.000000
1 1 1 1 4162.603472 123.946230 24.325360 -10.000000 0.000000 0.000000 0.000000 0.000000
1 1 1 1 4162.603472 123.946280 24.325360 -10.000000 0.000000 0.000000 0.000000 0.000000
1 1 1 1 4162.603472 123.946330 24.325360 -10.000000 0.000000 0.000000 0.000000 0.000000
1 1 1 1 4162.603472 123.946380 24.325360 -10.000000 0.000000 0.000000 0.000000 0.000000
1 1 1 1 4162.603472 123.946430 24.325360 -10.000000 0.000000 0.000000 0.000000 0.000000
1 1 1 1 4162.603472 123.946480 24.325360 -10.000000 0.000000 0.000000 0.000000 0.000000
1 1 1 1 4162.603472 123.946530 24.325360 -10.000000 0.000000 0.000000 0.000000 0.000000
1 1 1 1 4162.603472 123.946580 24.325360 -10.000000 0.000000 0.000000 0.000000 0.000000
1 1 1 1 4162.603472 123.946630 24.325360 -10.000000 0.000000 0.000000 0.000000 0.000000
1 1 1 1 4162.603472 123.946680 24.325360 -10.000000 0.000000 0.000000 0.000000 0.000000
1 1 1 1 4162.603472 123.946730 24.325360 -10.000000 0.000000 0.000000 0.000000 0.000000
1 1 1 1 4162.603472 123.946780 24.325360 -10.000000 0.000000 0.000000 0.000000 0.000000
1 1 1 1 4162.603472 123.946830 24.325360 -10.000000 0.000000 0.000000 0.000000 0.000000
1 1 1 1 4162.603472 123.946880 24.325360 -10.000000 0.000000 0.000000 0.000000 0.000000
1 1 1 1 4162.603472 123.946930 24.325360 -10.000000 0.000000 0.000000 0.000000 0.000000
1 1 1 1 4162.603472 123.946980 24.325360 -10.000000 0.000000 0.000000 0.000000 0.000000
1 1 1 1 4162.603472 123.947030 24.325360 -10.000000 0.000000 0.000000 0.000000 0.000000
1 1 1 1 4162.603472 123.947080 24.325360 -10.000000 0.000000 0.000000 0.000000 0.000000
1 1 1 1 4162.603472 123.947130 24.325360 -10.000000 0.000000 0.000000 0.000000 0.000000
1 1 1 1 4162.603472 123.947180 24.325360 -10.000000 0.000000 0.000000 0.000000 0.000000
1 1 1 1 4162.603472 123.947230 24.325360 -10.000000 0.000000 0.000000 0.000000 0.000000
1 1 1 1 4162.603472 123.947280 24.325360 -10.000000 0.000000 0.000000 0.000000 0.000000
1 1 1 1 4162.603472 123.947330 24.325360 -10.000000 0.000000 0.000000 0.000000 0.000000
1 1 1 1 4162.603472 123.947380 24.325360 -10.000000 0.000000 0.000000 0.000000 0.000000
1 1 1 1 4162.603472 123.947430 24.325360 -10.000000 0.000000 0.000000 0.000000 0.000000
1 1 1 1 4162.603472 123.947480 24.325360 -10.000000 0.000000 0.000000 0.000000 0.000000
1 1 1 1 4162.603472 123.947530 24.325360 -10.000000 0.000000 0.000000 0.000000 0.000000
1 1 1 1 4162.603472 123.947580 24.325360 -10.000000 0.000000 0.000000 0.000000 0.000000
1 1 1 1 4162.603472 123.947630 24.325360 -10.000000 0.000000 0.000000 0.000000 0.000000
1 1 1 1 4162.603472 123.947680 24.325360 -10.000000 0.000000 0.000000 0.000000 0.000000
1 1 1 1 4162.603472 123.947730 24.325360 -10.000000 0.000000 0.000000 0.000000 0.000000
1 1 1 1 4162.603472 123.947780 24.325360 -10.000000 0.000000 0.000000 0.000000 0.000000
1 1 1 1 4162.603472 123.947830 24.325360 -10.000000 0.000000 0.000000 0.000000 0.000000
1 1 1 1 4162.603472 123.947880 24.325360 -10.000000 0.000000 0.000000 0.000000 0.000000
1 1 1 1 4162.603472 123.947930 24.325360 -10.000000 0.000000 0.000000 0.000000 0.000000
1 1 1 1 4162.603472 123.947980 24.325360 -10.000000 0.000000 0.000000 0.000000 0.000000
1 1 1 1 4162.603472 123.948030 24.325360 -10.000000 0.000000 0.000000 0.000000 0.000000
1 1 1 1 4162.603472 123.948080 24.325360 -10.000000 0.000000 0.000000 0.000000 0.000000
1 1 1 1 4162.603472 123.948130 24.325360 -10.000000 0.000000 0.000000 0.000000 0.000000
1 1 1 1 4162.603472 123.948180 24.325360 -10.000000 0.000000 0.000000 0.000000 0.000000
1 1 1 1 4162.603472 123.948230 24.325360 -10.000000 0.000000 0.000000 0.000000 0.000000
1 1 1 1 4162.603472 123.948280 24.325360 -10.000000 0.000000 0.000000 0.000000 0.000000
1 1 1 1 4162.603472 123.948330 24.325360 -10.000000 0.000000 0.000000 0.000000 0.000000
1 1 1 1 4162.603472 123.948380 24.325360 -10.000000 0.000000 0.000000 0.000000 0.000000
1 1 1 1 4162.603472 123.948430 24.325360 -10.000000 0.000000 0.000000 0.000000 0.000000
1 1 1 1 4162.603472 123.948480 24.325360 -10.000000 0.000000 0.000000 0.000000 0.000000
1 1 1 1 4162.603472 123.948530 24.325360 -10.000000 0.000000 0.000000 0.000000 0.000000
1 1 1 1 4162.603472 123.948580 24.325360 -10.000000 0.000000 0.000000 0.000000 0.000000
1 1 1 1 4162.603472 123.948630 24.325360 -10.000000 0.000000 0.000000 0.000000 0.000000
1 1 1 1 4162.603472 123.948680 24.325360 -10.000000 0.000000 0.000000 0.000000 0.000000
1 1 1 1 4162.603472 123.948730 24.325360 -10.000000 0.000000 0.000000 0.000000 0.000000
1 1 1 1 4162.603472 123.948780 24.325360 -10.000000 0.000000 0.000000 0.000000 0.000000
1 1 1 1 4162.603472 123.948830 24.325360 -10.000000 0.000000 0.000000 0.000000 0.000000
1 1 1 1 4162.603472 123.948880 24.325360 -10.000000 0.000000 0.000000 0.000000 0.000000
1 1 1 1 4162.603472 123.948930 24.325360 -10.000000 0.000000 0.000000 0.000000 0.000000
1 1 1 1 4162.603472 123.948980 24.325360 -10.000000 0.000000 0.000000 0.000000 0.000000
1 1 1 1 4162.603472 123.949030 24.325360 -10.000000 0.000000 0.000000 0.000000 0.000000
1 1 1 1 4162.603472 123.949080 24.325360 -10.000000 0.000000 0.000000 0.000000 0.000000
1 1 1 1 4162.603472 123.949130 24.325360 -10.000000 0.000000 0.000000 0.000000 0.000000
1 1 1 1 4162.603472 123.949180 24.325360 -10.000000 0.000000 0.000000 0.000000 0.000000
1 1 1 1 4162.603472 123.949230 24.325360 -10.000000 0.000000 0.000000 0.000000 0.000000
1 1 1 1 4162.603472 123.949280 24.325360 -10.000000 0.000000 0.000000 0.000000 0.000000
1 1 1 1 4162.603472 123.949330 24.325360 -10.000000 0.000000 0.000000 0.000000 0.000000
1 1 1 1 4162.603472 123.949380 24.325360 -10.000000 0.000000 0.000000 0.000000 0.000000
1 1 1 1 4162.603472 123.949430 24.325360 -10.000000 0.000000 0.000000 0.000000 0.000000
1 1 1 1 4162.603472 123.949480 24.325360 -10.000000 0.000000 0.000000 0.000000 0.000000
1 1 1 1 4162.603472 123.949530 24.325360 -10.000000 0.000000 0.000000 0.000000 0.000000
1 1 1 1 4162.603472 123.949580 24.325360 -10.000000 0.000000 0.000000 0.000000 0.000000
1 1 1 1 4162.603472 123.949630 24.325360 -10.000000 0.000000 0.000000 0.000000 0.000000
1 1 1 1 4162.603472 123.949680 24.325360 -10.000000 0.000000 0.000000 0.000000 0.000000
1 1 1 1 4162.603472 123.949730 24.325360 -10.000000 0.000000 0.000000 0.000000 0.000000
1 1 1 1 4162.603472 123.949780 24.325360 -10.000000 0.000000 0.000000 0.000000 0.000000
1 1 1 1 4162.603472 123.949830 24.325360 -10.000000 0.000000 0.000000 0.000000 0.000000
1 1 1 1 4162.603472 123.949880 24.325360 -10.000000 0.000000 0.000000 0.000000 0.000000
1 1 1 1 4162.603472 123.949930 24.325360 -10.000000 0.000000 0.000000 0.000000 0.000000
1 1 1 1 4162.603472 123.949980 24.325360 -10.000000 0.000000 0.000000 0.000000 0.000000
1 1 1 1 4162.603472 123.950030 24.325360 -10.000000 0.000000 0.000000 0.000000 0.000000
1 1 1 1 4162.603472 123.950080 24.325360 -10.000000 0.000000 0.000000 0.000000 0.000000
1 1 1 1 4162.603472 123.950130 24.325360 -10.000000 0.000000 0.000000 0.000000 0.000000
1 1 1 1 4162.603472 123.950180 24.325360 -10.000000 0.000000 0.000000 0.000000 0.000000
1 1 1 1 4162.603472 123.950230 24.325360 -10.000000 0.000000 0.000000 0.000000 0.000000
1 1 1 1 4162.603472 123.950280 24.325360 -10.000000 0.000000 0.000000 0.000000 0.000000
1 1 1 1 4162.603472 123.950330 24.325360 -10.000000 0.000000 0.000000 0.000000 0.000000
1 1 1 1 4162.603472 123.950380 24.325360 -10.000000 0.000000 0.000000 0.000000 0.000000
1 1 1 1 4162.603472 123.950430 24.325360 -10.000000 0.000000 0.000000 0.000000 0.000000
1 1 1 1 4162.603472 123.950480 24.325360 -10.000000 0.000000 0.000000 0.000000 0.000000
1 1 1 1 4162.603472 123.950530 24.325360 -10.000000 0.000000 0.000000 0.000000 0.000000
1 1 1 1 4162.603472 123.945580 24.325410 -10.000000 0.000000 0.000000 0.000000 0.000000
1 1 1 1 4162.603472 123.945630 24.325410 -10.000000 0.000000 0.000000 0.000000 0.000000
1 1 1 1 4162.603472 123.945680 24.325410 -10.000000 0.000000 0.000000 0.000000 0.000000
1 1 1 1 4162.603472 123.945730 24.325410 -10.000000 0.000000 0.000000 0.000000 0.000000
1 1 1 1 4162.603472 123.945780 24.325410 -10.000000 0.000000 0.000000 0.000000 0.000000
1 1 1 1 4162.603472 123.945830 24.325410 -10.000000 0.000000 0.000000 0.000000 0.000000
1 1 1 1 4162.603472 123.945880 24.325410 -10.000000 0.000000 0.000000 0.000000 0.000000
1 1 1 1 4162.603472 123.945930 24.325410 -10.000000 0.000000 0.000000 0.000000 0.000000
1 1 1 1 4162.603472 123.945980 24.325410 -10.000000 0.000000 0.000000 0.000000 0.000000
1 1 1 1 4162.603472 123.946030 24.325410 -10.000000 0.000000 0.000000 0.000000 0.000000
1 1 1 1 4162.603472 123.946080 24.325410 -10.000000 0.000000 0.000000 0.000000 0.000000
1 1 1 1 4162.603472 123.946130 24.325410 -10.000000 0.000000 0.000000 0.000000 0.000000
1 1 1 1 4162.603472 123.946180 24.325410 -10.000000 0.000000 0.000000 0.000000 0.000000
1 1 1 1 4162.603472 123.946230 24.325410 -10.000000 0.000000 0.000000 0.000000 0.000000
1 1 1 1 4162.603472 123.946280 24.325410 -10.000000 0.000000 0.000000 0.000000 0.000000
1 1 1 1 4162.603472 123.946330 24.325410 -10.000000 0.000000 0.000000 0.000000 0.000000
1 1 1 1 4162.603472 123.946380 24.325410 -10.000000 0.000000 0.000000 0.000000 0.000000
1 1 1 1 4162.603472 123.946430 24.325410 -10.000000 0.000000 0.000000 0.000000 0.000000
1 1 1 1 4162.603472 123.946480 24.325410 -10.000000 0.000000 0.000000 0.000000 0.000000
1 1 1 1 4162.603472 123.946530 24.325410 -10.000000 0.000000 0.000000 0.000000 0.000000
1 1 1 1 4162.603472 123.946580 24.325410 -10.000000 0.000000 0.000000 0.000000 0.000000
1 1 1 1 4162.603472 123.946630 24.325410 -10.000000 0.000000 0.000000 0.000000 0.000000
1 1 1 1 4162.603472 123.946680 24.325410 -10.000000 0.000000 0.000000 0.000000 0.000000
1 1 1 1 4162.603472 123.946730 24.325410 -10.000000 0.000000 0.000000 0.000000 0.000000
1 1 1 1 4162.603472 123.946780 24.325410 -10.000000 0.000000 0.000000 0.000000 0.000000
1 1 1 1 4162.603472 123.946830 24.325410 -10.000000 0.000000 0.000000 0.000000 0.000000
1 1 1 1 4162.603472 123.946880 24.325410 -10.000000 0.000000 0.000000 0.000000 0.000000
1 1 1 1 4162.603472 123.946930 24.325410 -10.000000 0.000000 0.000000 0.000000 0.000000
1 1 1 1 4162.603472 123.946980 24.325410 -10.000000 0.000000 0.000000 0.000000 0.000000
1 1 1 1 4162.603472 123.947030 24.325410 -10.000000 0.000000 0.000000 0.000000 0.000000
1 1 1 1 4162.603472 123.947080 24.325410 -10.000000 0.000000 0.000000 0.000000 0.000000
1 1 1 1 4162.603472 123.947130 24.325410 -10.000000 0.000000 0.000000 0.000000 0.000000
1 1 1 1 4162.603472 123.947180 24.325410 -10.000000 0.000000 0.000000 0.000000 0.000000
1 1 1 1 4162.603472 123.947230 24.325410 -10.000000 0.000000 0.000000 0.000000 0.000000
1 1 1 1 4162.603472 123.947280 24.325410 -10.000000 0.000000 0.000000 0.000000 0.000000
1 1 1 1 4162.603472 123.947330 24.325410 -10.000000 0.000000 0.000000 0.000000 0.000000
1 1 1 1 4162.603472 123.947380 24.325410 -10.000000 0.000000 0.000000 0.000000 0.000000
1 1 1 1 4162.603472 123.947430 24.325410 -10.000000 0.000000 0.000000 0.000000 0.000000
1 1 1 1 4162.603472 123.947480 24.325410 -10.000000 0.000000 0.000000 0.000000 0.000000
1 1 1 1 4162.603472 123.947530 24.325410 -10.000000 0.000000 0.000000 0.000000 0.000000
1 1 1 1 4162.603472 123.947580 24.325410 -10.000000 0.000000 0.000000 0.000000 0.000000
1 1 1 1 4162.603472 123.947630 24.325410 -10.000000 0.000000 0.000000 0.000000 0.000000
1 1 1 1 4162.603472 123.947680 24.325410 -10.000000 0.000000 0.000000 0.000000 0.000000
1 1 1 1 4162.603472 123.947730 24.325410 -10.000000 0.000000 0.000000 0.000000 0.000000
1 1 1 1 4162.603472 123.947780 24.325410 -10.000000 0.000000 0.000000 0.000000 0.000000
1 1 1 1 4162.603472 123.947830 24.325410 -10.000000 0.000000 0.000000 0.000000 0.000000
1 1 1 1 4162.603472 123.947880 24.325410 -10.000000 0.000000 0.000000 0.000000 0.000000
1 1 1 1 4162.603472 123.947930 24.325410 -10.000000 0.000000 0.000000 0.000000 0.000000
1 1 1 1 4162.603472 123.947980 24.325410 -10.000000 0.000000 0.000000 0.000000 0.000000
1 1 1 1 4162.603472 123.948030 24.325410 -10.000000 0.000000 0.000000 0.000000 0.000000
1 1 1 1 4162.603472 123.948080 24.325410 -10.000000 0.000000 0.000000 0.000000 0.000000
1 1 1 1 4162.603472 123.948130 24.325410 -10.000000 0.000000 0.000000 0.000000 0.000000
1 1 1 1 4162.603472 123.948180 24.325410 -10.000000 0.000000 0.000000 0.000000 0.000000
1 1 1 1 4162.603472 123.948230 24.325410 -10.000000 0.000000 0.000000 0.000000 0.000000
1 1 1 1 4162.603472 123.948280 24.325410 -10.000000 0.000000 0.000000 0.000000 0.000000
1 1 1 1 4162.603472 123.948330 24.325410 -10.000000 0.000000 0.000000 0.000000 0.000000
1 1 1 1 4162.603472 123.948380 24.325410 -10.000000 0.000000 0.000000 0.000000 0.000000
1 1 1 1 4162.603472 123.948430 24.325410 -10.000000 0.000000 0.000000 0.000000 0.000000
1 1 1 1 4162.603472 123.948480 24.325410 -10.000000 0.000000 0.000000 0.000000 0.000000
1 1 1 1 4162.603472 123.948530 24.325410 -10.000000 0.000000 0.000000 0.000000 0.000000
1 1 1 1 4162.603472 123.948580 24.325410 -10.000000 0.000000 0.000000 0.000000 0.000000
1 1 1 1 4162.603472 123.948630 24.325410 -10.000000 0.000000 0.000000 0.000000 0.000000
1 1 1 1 4162.603472 123.948680 24.325410 -10.000000 0.000000 0.000000 0.000000 0.000000
1 1 1 1 4162.603472 123.948730 24.325410 -10.000000 0.000000 0.000000 0.000000 0.000000
1 1 1 1 4162.603472 123.948780 24.325410 -10.000000 0.000000 0.000000 0.000000 0.000000
1 1 1 1 4162.603472 123.948830 24.325410 -10.000000 0.000000 0.000000 0.000000 0.000000
1 1 1 1 4162.603472 123.948880 24.325410 -10.000000 0.000000 0.000000 0.000000 0.000000
1 1 1 1 4162.603472 123.948930 24.325410 -10.000000 0.000000 0.000000 0.000000 0.000000
1 1 1 1 4162.603472 123.948980 24.325410 -10.000000 0.000000 0.000000 0.000000 0.000000
1 1 1 1 4162.603472 123.949030 24.325410 -10.000000 0.000000 0.000000 0.000000 0.000000
1 1 1 1 4162.603472 123.949080 24.325410 -10.000000 0.000000 0.000000 0.000000 0.000000
1 1 1 1 4162.603472 123.949130 24.325410 -10.000000 0.000000 0.000000 0.000000 0.000000
1 1 1 1 4162.603472 123.949180 24.325410 -10.000000 0.000000 0.000000 0.000000 0.000000
1 1 1 1 4162.603472 123.949230 24.325410 -10.000000 0.000000 0.000000 0.000000 0.000000
1 1 1 1 4162.603472 123.949280 24.325410 -10.000000 0.000000 0.000000 0.000000 0.000000
1 1 1 1 4162.603472 123.949330 24.325410 -10.000000 0.000000 0.000000 0.000000 0.000000
1 1 1 1 4162.603472 123.949380 24.325410 -10.000000 0.000000 0.000000 0.000000 0.000000
1 1 1 1 4162.603472 123.949430 24.325410 -10.000000 0.000000 0.000000 0.000000 0.000000
1 1 1 1 4162.603472 123.949480 24.325410 -10.000000 0.000000 0.000000 0.000000 0.000000
1 1 1 1 4162.603472 123.949530 24.325410 -10.000000 0.000000 0.000000 0.000000 0.000000
1 1 1 1 4162.603472 123.949580 24.325410 -10.000000 0.000000 0.000000 0.000000 0.000000
1 1 1 1 4162.603472 123.949630 24.325410 -10.000000 0.000000 0.000000 0.000000 0.000000
1 1 1 1 4162.603472 123.949680 24.325410 -10.000000 0.000000 0.000000 0.000000 0.000000
1 1 1 1 4162.603472 123.949730 24.325410 -10.000000 0.000000 0.000000 0.000000 0.000000
1 1 1 1 4162.603472 123.949780 24.325410 -10.000000 0.000000 0.000000 0.000000 0.000000
1 1 1 1 4162.603472 123.949830 24.325410 -10.000000 0.000000 0.000000 0.000000 0.000000
1 1 1 1 4162.603472 123.949880 24.325410 -10.000000 0.000000 0.000000 0.000000 0.000000
1 1 1 1 4162.603472 123.949930 24.325410 -10.000000 0.000000 0.000000 0.000000 0.000000
1 1 1 1 4162.603472 123.949980 24.325410 -10.000000 0.000000 0.000000 0.000000 0.000000
1 1 1 1 4162.603472 123.950030 24.325410 -10.000000 0.000000 0.000000 0.000000 0.000000
1 1 1 1 4162.603472 123.950080 24.325410 -10.000000 0.000000 0.000000 0.000000 0.000000
1 1 1 1 4162.603472 123.950130 24.325410 -10.000000 0.000000 0.000000 0.000000 0.000000
1 1 1 1 4162.603472 123.950180 24.325410 -10.000000 0.000000 0.000000 0.000000 0.000000
1 1 1 1 4162.603472 123.950230 24.325410 -10.000000 0.000000 0.000000 0.000000 0.000000
1 1 1 1 4162.603472 123.950280 24.325410 -10.000000 0.000000 0.000000 0.000000 0.000000
1 1 1 1 4162.603472 123.950330 24.325410 -10.000000 0.000000 0.000000 0.000000 0.000000
1 1 1 1 4162.603472 123.950380 24.325410 -10.000000 0.000000 0.000000 0.000000 0.000000
1 1 1 1 4162.603472 123.950430 24.325410 -10.000000 0.000000 0.000000 0.000000 0.000000
1 1 1 1 4162.603472 123.950480 24.325410 -10.000000 0.000000 0.000000 0.000000 0.000000
1 1 1 1 4162.603472 123.950530 24.325410 -10.000000 0.000000 0.000000 0.000000 0.000000
1 1 1 1 4162.603472 123.945580 24.325460 -10.000000 0.000000 0.000000 0.000000 0.000000
1 1 1 1 4162.603472 123.945630 24.325460 -10.000000 0.000000 0.000000 0.000000 0.000000
1 1 1 1 4162.603472 123.945680 24.325460 -10.000000 0.000000 0.000000 0.000000 0.000000
1 1 1 1 4162.603472 123.945730 24.325460 -10.000000 0.000000 0.000000 0.000000 0.000000
1 1 1 1 4162.603472 123.945780 24.325460 -10.000000 0.000000 0.000000 0.000000 0.000000
1 1 1 1 4162.603472 123.945830 24.325460 -10.000000 0.000000 0.000000 0.000000 0.000000
1 1 1 1 4162.603472 123.945880 24.325460 -10.000000 0.000000 0.000000 0.000000 0.000000
1 1 1 1 4162.603472 123.945930 24.325460 -10.000000 0.000000 0.000000 0.000000 0.000000
1 1 1 1 4162.603472 123.945980 24.325460 -10.000000 0.000000 0.000000 0.000000 0.000000
1 1 1 1 4162.603472 123.946030 24.325460 -10.000000 0.000000 0.000000 0.000000 0.000000
1 1 1 1 4162.603472 123.946080 24.325460 -10.000000 0.000000 0.000000 0.000000 0.000000
1 1 1 1 4162.603472 123.946130 24.325460 -10.000000 0.000000 0.000000 0.000000 0.000000
1 1 1 1 4162.603472 123.946180 24.325460 -10.000000 0.000000 0.000000 0.000000 0.000000
1 1 1 1 4162.603472 123.946230 24.325460 -10.000000 0.000000 0.000000 0.000000 0.000000
1 1 1 1 4162.603472 123.946280 24.325460 -10.000000 0.000000 0.000000 0.000000 0.000000
1 1 1 1 4162.603472 123.946330 24.325460 -10.000000 0.000000 0.000000 0.000000 0.000000
1 1 1 1 4162.603472 123.946380 24.325460 -10.000000 0.000000 0.000000 0.000000 0.000000
1 1 1 1 4162.603472 123.946430 24.325460 -10.000000 0.000000 0.000000 0.000000 0.000000
1 1 1 1 4162.603472 123.946480 24.325460 -10.000000 0.000000 0.000000 0.000000 0.000000
1 1 1 1 4162.603472 123.946530 24.325460 -10.000000 0.000000 0.000000 0.000000 0.000000
1 1 1 1 4162.603472 123.946580 24.325460 -10.000000 0.000000 0.000000 0.000000 0.000000
1 1 1 1 4162.603472 123.946630 24.325460 -10.000000 0.000000 0.000000 0.000000 0.000000
1 1 1 1 4162.603472 123.946680 24.325460 -10.000000 0.000000 0.000000 0.000000 0.000000
1 1 1 1 4162.603472 123.946730 24.325460 -10.000000 0.000000 0.000000 0.000000 0.000000
1 1 1 1 4162.603472 123.946780 24.325460 -10.000000 0.000000 0.000000 0.000000 0.000000
1 1 1 1 4162.603472 123.946830 24.325460 -10.000000 0.000000 0.000000 0.000000 0.000000
1 1 1 1 4162.603472 123.946880 24.325460 -10.000000 0.000000 0.000000 0.000000 0.000000
1 1 1 1 4162.603472 123.946930 24.325460 -10.000000 0.000000 0.000000 0.000000 0.000000
1 1 1 1 4162.603472 123.946980 24.325460 -10.000000 0.000000 0.000000 0.000000 0.000000
1 1 1 1 4162.603472 123.947030 24.325460 -10.000000 0.000000 0.000000 0.000000 0.000000
1 1 1 1 4162.603472 123.947080 24.325460 -10.000000 0.000000 0.000000 0.000000 0.000000
1 1 1 1 4162.603472 123.947130 24.325460 -10.000000 0.000000 0.000000 0.000000 0.000000
1 1 1 1 4162.603472 123.947180 24.325460 -10.000000 0.000000 0.000000 0.000000 0.000000
1 1 1 1 4162.603472 123.947230 24.325460 -10.000000 0.000000 0.000000 0.000000 0.000000
1 1 1 1 4162.603472 123.947280 24.325460 -10.000000 0.000000 0.000000 0.000000 0.000000
1 1 1 1 4162.603472 123.947330 24.325460 -10.000000 0.000000 0.000000 0.000000 0.000000
1 1 1 1 4162.603472 123.947380 24.325460 -10.000000 0.000000 0.000000 0.000000 0.000000
1 1 1 1 4162.603472 123.947430 24.325460 -10.000000 0.000000 0.000000 0.000000 0.000000
1 1 1 1 4162.603472 123.947480 24.325460 -10.000000 0.000000 0.000000 0.000000 0.000000
1 1 1 1 4162.603472 123.947530 24.325460 -10.000000 0.000000 0.000000 0.000000 0.000000
1 1 1 1 4162.603472 123.947580 24.325460 -10.000000 0.000000 0.000000 0.000000 0.000000
1 1 1 1 4162.603472 123.947630 24.325460 -10.000000 0.000000 0.000000 0.000000 0.000000
1 1 1 1 4162.603472 123.947680 24.325460 -10.000000 0.000000 0.000000 0.000000 0.000000
1 1 1 1 4162.603472 123.947730 24.325460 -10.000000 0.000000 0.000000 0.000000 0.000000
1 1 1 1 4162.603472 123.947780 24.325460 -10.000000 0.000000 0.000000 0.000000 0.000000
1 1 1 1 4162.603472 123.947830 24.325460 -10.000000 0.000000 0.000000 0.000000 0.000000
1 1 1 1 4162.603472 123.947880 24.325460 -10.000000 0.000000 0.000000 0.000000 0.000000
1 1 1 1 4162.603472 123.947930 24.325460 -10.000000 0.000000 0.000000 0.000000 0.000000
1 1 1 1 4162.603472 123.947980 24.325460 -10.000000 0.000000 0.000000 0.000000 0.000000
1 1 1 1 4162.603472 123.948030 24.325460 -10.000000 0.000000 0.000000 0.000000 0.000000
1 1 1 1 4162.603472 123.948080 24.325460 -10.000000 0.000000 0.000000 0.000000 0.000000
1 1 1 1 4162.603472 123.948130 24.325460 -10.000000 0.000000 0.000000 0.000000 0.000000
1 1 1 1 4162.603472 123.948180 24.325460 -10.000000 0.000000 0.000000 0.000000 0.000000
1 1 1 1 4162.603472 123.948230 24.325460 -10.000000 0.000000 0.000000 0.000000 0.000000
1 1 1 1 4162.603472 123.948280 24.325460 -10.000000 0.000000 0.000000 0.000000 0.000000
1 1 1 1 4162.603472 123.948330 24.325460 -10.000000 0.000000 0.000000 0.000000 0.000000
1 1 1 1 4162.603472 123.948380 24.325460 -10.000000 0.000000 0.000000 0.000000 0.000000
1 1 1 1 4162.603472 123.948430 24.325460 -10.000000 0.000000 0.000000 0.000000 0.000000
1 1 1 1 4162.603472 123.948480 24.325460 -10.000000 0.000000 0.000000 0.000000 0.000000
1 1 1 1 4162.603472 123.948530 24.325460 -10.000000 0.000000 0.000000 0.000000 0.000000
1 1 1 1 4162.603472 123.948580 24.325460 -10.000000 0.000000 0.000000 0.000000 0.000000
1 1 1 1 4162.603472 123.948630 24.325460 -10.000000 0.000000 0.000000 0.000000 0.000000
1 1 1 1 4162.603472 123.948680 24.325460 -10.000000 0.000000 0.000000 0.000000 0.000000
1 1 1 1 4162.603472 123.948730 24.325460 -10.000000 0.000000 0.000000 0.000000 0.000000
1 1 1 1 4162.603472 123.948780 24.325460 -10.000000 0.000000 0.000000 0.000000 0.000000
1 1 1 1 4162.603472 123.948830 24.325460 -10.000000 0.000000 0.000000 0.000000 0.000000
1 1 1 1 4162.603472 123.948880 24.325460 -10.000000 0.000000 0.000000 0.000000 0.000000
1 1 1 1 4162.603472 123.948930 24.325460 -10.000000 0.000000 0.000000 0.000000 0.000000
1 1 1 1 4162.603472 123.948980 24.325460 -10.000000 0.000000 0.000000 0.000000 0.000000
1 1 1 1 4162.603472 123.949030 24.325460 -10.000000 0.000000 0.000000 0.000000 0.000000
1 1 1 1 4162.603472 123.949080 24.325460 -10.000000 0.000000 0.000000 0.000000 0.000000
1 1 1 1 4162.603472 123.949130 24.325460 -10.000000 0.000000 0.000000 0.000000 0.000000
1 1 1 1 4162.603472 123.949180 24.325460 -10.000000 0.000000 0.000000 0.000000 0.000000
1 1 1 1 4162.603472 123.949230 24.325460 -10.000000 0.000000 0.000000 0.000000 0.000000
1 1 1 1 4162.603472 123.949280 24.325460 -10.000000 0.000000 0.000000 0.000000 0.000000
1 1 1 1 4162.603472 123.949330 24.325460 -10.000000 0.000000 0.000000 0.000000 0.000000
1 1 1 1 4162.603472 123.949380 24.325460 -10.000000 0.000000 0.000000 0.000000 0.000000
1 1 1 1 4162.603472 123.949430 24.325460 -10.000000 0.000000 0.000000 0.000000 0.000000
1 1 1 1 4162.603472 123.949480 24.325460 -10.000000 0.000000 0.000000 0.000000 0.000000
1 1 1 1 4162.603472 123.949530 24.325460 -10.000000 0.000000 0.000000 0.000000 0.000000
1 1 1 1 4162.603472 123.949580 24.325460 -10.000000 0.000000 0.000000 0.000000 0.000000
1 1 1 1 4162.603472 123.949630 24.325460 -10.000000 0.000000 0.000000 0.000000 0.000000
1 1 1 1 4162.603472 123.949680 24.325460 -10.000000 0.000000 0.000000 0.000000 0.000000
1 1 1 1 4162.603472 123.949730 24.325460 -10.000000 0.000000 0.000000 0.000000 0.000000
1 1 1 1 4162.603472 123.949780 24.325460 -10.000000 0.000000 0.000000 0.000000 0.000000
1 1 1 1 4162.603472 123.949830 24.325460 -10.000000 0.000000 0.000000 0.000000 0.000000
1 1 1 1 4162.603472 123.949880 24.325460 -10.000000 0.000000 0.000000 0.000000 0.000000
1 1 1 1 4162.603472 123.949930 24.325460 -10.000000 0.000000 0.000000 0.000000 0.000000
1 1 1 1 4162.603472 123.949980 24.325460 -10.000000 0.000000 0.000000 0.000000 0.000000
1 1 1 1 4162.603472 123.950030 24.325460 -10.000000 0.000000 0.000000 0.000000 0.000000
1 1 1 1 4162.603472 123.950080 24.325460 -10.000000 0.000000 0.000000 0.000000 0.000000
1 1 1 1 4162.603472 123.950130 24.325460 -10.000000 0.000000 0.000000 0.000000 0.000000
1 1 1 1 4162.603472 123.950180 24.325460 -10.000000 0.000000 0.000000 0.000000 0.000000
1 1 1 1 4162.603472 123.950230 24.325460 -10.000000 0.000000 0.000000 0.000000 0.000000
1 1 1 1 4162.603472 123.950280 24.325460 -10.000000 0.000000 0.000000 0.000000 0.000000
1 1 1 1 4162.603472 123.950330 24.325460 -10.000000 0.000000 0.000000 0.000000 0.000000
1 1 1 1 4162.603472 123.950380 24.325460 -10.000000 0.000000 0.000000 0.000000 0.000000
1 1 1 1 4162.603472 123.950430 24.325460 -10.000000 0.000000 0.000000 0.000000 0.000000
1 1 1 1 4162.603472 123.950480 24.325460 -10.000000 0.000000 0.000000 0.000000 0.000000
1 1 1 1 4162.603472 123.950530 24.325460 -10.000000 0.000000 0.000000 0.000000 0.000000
1 1 1 1 4162.603472 123.945580 24.325510 -10.000000 0.000000 0.000000 0.000000 0.000000
1 1 1 1 4162.603472 123.945630 24.325510 -10.000000 0.000000 0.000000 0.000000 0.000000
1 1 1 1 4162.603472 123.945680 24.325510 -10.000000 0.000000 0.000000 0.000000 0.000000
1 1 1 1 4162.603472 123.945730 24.325510 -10.000000 0.000000 0.000000 0.000000 0.000000
1 1 1 1 4162.603472 123.945780 24.325510 -10.000000 0.000000 0.000000 0.000000 0.000000
1 1 1 1 4162.603472 123.945830 24.325510 -10.000000 0.000000 0.000000 0.000000 0.000000
1 1 1 1 4162.603472 123.945880 24.325510 -10.000000 0.000000 0.000000 0.000000 0.000000
1 1 1 1 4162.603472 123.945930 24.325510 -10.000000 0.000000 0.000000 0.000000 0.000000
1 1 1 1 4162.603472 123.945980 24.325510 -10.000000 0.000000 0.000000 0.000000 0.000000
1 1 1 1 4162.603472 123.946030 24.325510 -10.000000 0.000000 0.000000 0.000000 0.000000
1 1 1 1 4162.603472 123.946080 24.325510 -10.000000 0.000000 0.000000 0.000000 0.000000
1 1 1 1 4162.603472 123.946130 24.325510 -10.000000 0.000000 0.000000 0.000000 0.000000
1 1 1 1 4162.603472 123.946180 24.325510 -10.000000 0.000000 0.000000 0.000000 0.000000
1 1 1 1 4162.603472 123.946230 24.325510 -10.000000 0.000000 0.000000 0.000000 0.000000
1 1 1 1 4162.603472 123.946280 24.325510 -10.000000 0.000000 0.000000 0.000000 0.000000
1 1 1 1 4162.603472 123.946330 24.325510 -10.000000 0.000000 0.000000 0.000000 0.000000
1 1 1 1 4162.603472 123.946380 24.325510 -10.000000 0.000000 0.000000 0.000000 0.000000
1 1 1 1 4162.603472 123.946430 24.325510 -10.000000 0.000000 0.000000 0.000000 0.000000
1 1 1 1 4162.603472 123.946480 24.325510 -10.000000 0.000000 0.000000 0.000000 0.000000
1 1 1 1 4162.603472 123.946530 24.325510 -10.000000 0.000000 0.000000 0.000000 0.000000
1 1 1 1 4162.603472 123.946580 24.325510 -10.000000 0.000000 0.000000 0.000000 0.000000
1 1 1 1 4162.603472 123.946630 24.325510 -10.000000 0.000000 0.000000 0.000000 0.000000
1 1 1 1 4162.603472 123.946680 24.325510 -10.000000 0.000000 0.000000 0.000000 0.000000
1 1 1 1 4162.603472 123.946730 24.325510 -10.000000 0.000000 0.000000 0.000000 0.000000
1 1 1 1 4162.603472 123.946780 24.325510 -10.000000 0.000000 0.000000 0.000000 0.000000
1 1 1 1 4162.603472 123.946830 24.325510 -10.000000 0.000000 0.000000 0.000000 0.000000
1 1 1 1 4162.603472 123.946880 24.325510 -10.000000 0.000000 0.000000 0.000000 0.000000
1 1 1 1 4162.603472 123.946930 24.325510 -10.000000 0.000000 0.000000 0.000000 0.000000
1 1 1 1 4162.603472 123.946980 24.325510 -10.000000 0.000000 0.000000 0.000000 0.000000
1 1 1 1 4162.603472 123.947030 24.325510 -10.000000 0.000000 0.000000 0.000000 0.000000
1 1 1 1 4162.603472 123.947080 24.325510 -10.000000 0.000000 0.000000 0.000000 0.000000
1 1 1 1 4162.603472 123.947130 24.325510 -10.000000 0.000000 0.000000 0.000000 0.000000
1 1 1 1 4162.603472 123.947180 24.325510 -10.000000 0.000000 0.000000 0.000000 0.000000
1 1 1 1 4162.603472 123.947230 24.325510 -10.000000 0.000000 0.000000 0.000000 0.000000
1 1 1 1 4162.603472 123.947280 24.325510 -10.000000 0.000000 0.000000 0.000000 0.000000
1 1 1 1 4162.603472 123.947330 24.325510 -10.000000 0.000000 0.000000 0.000000 0.000000
1 1 1 1 4162.603472 123.947380 24.325510 -10.000000 0.000000 0.000000 0.000000 0.000000
1 1 1 1 4162.603472 123.947430 24.325510 -10.000000 0.000000 0.000000 0.000000 0.000000
1 1 1 1 4162.603472 123.947480 24.325510 -10.000000 0.000000 0.000000 0.000000 0.000000
1 1 1 1 4162.603472 123.947530 24.325510 -10.000000 0.000000 0.000000 0.000000 0.000000
1 1 1 1 4162.603472 123.947580 24.325510 -10.000000 0.000000 0.000000 0.000000 0.000000
1 1 1 1 4162.603472 123.947630 24.325510 -10.000000 0.000000 0.000000 0.000000 0.000000
1 1 1 1 4162.603472 123.947680 24.325510 -10.000000 0.000000 0.000000 0.000000 0.000000
1 1 1 1 4162.603472 123.947730 24.325510 -10.000000 0.000000 0.000000 0.000000 0.000000
1 1 1 1 4162.603472 123.947780 24.325510 -10.000000 0.000000 0.000000 0.000000 0.000000
1 1 1 1 4162.603472 123.947830 24.325510 -10.000000 0.000000 0.000000 0.000000 0.000000
1 1 1 1 4162.603472 123.947880 24.325510 -10.000000 0.000000 0.000000 0.000000 0.000000
1 1 1 1 4162.603472 123.947930 24.325510 -10.000000 0.000000 0.000000 0.000000 0.000000
1 1 1 1 4162.603472 123.947980 24.325510 -10.000000 0.000000 0.000000 0.000000 0.000000
1 1 1 1 4162.603472 123.948030 24.325510 -10.000000 0.000000 0.000000 0.000000 0.000000
1 1 1 1 4162.603472 123.948080 24.325510 -10.000000 0.000000 0.000000 0.000000 0.000000
1 1 1 1 4162.603472 123.948130 24.325510 -10.000000 0.000000 0.000000 0.000000 0.000000
1 1 1 1 4162.603472 123.948180 24.325510 -10.000000 0.000000 0.000000 0.000000 0.000000
1 1 1 1 4162.603472 123.948230 24.325510 -10.000000 0.000000 0.000000 0.000000 0.000000
1 1 1 1 4162.603472 123.948280 24.325510 -10.000000 0.000000 0.000000 0.000000 0.000000
1 1 1 1 4162.603472 123.948330 24.325510 -10.000000 0.000000 0.000000 0.000000 0.000000
1 1 1 1 4162.603472 123.948380 24.325510 -10.000000 0.000000 0.000000 0.000000 0.000000
1 1 1 1 4162.603472 123.948430 24.325510 -10.000000 0.000000 0.000000 0.000000 0.000000
1 1 1 1 4162.603472 123.948480 24.325510 -10.000000 0.000000 0.000000 0.000000 0.000000
1 1 1 1 4162.603472 123.948530 24.325510 -10.000000 0.000000 0.000000 0.000000 0.000000
1 1 1 1 4162.603472 123.948580 24.325510 -10.000000 0.000000 0.000000 0.000000 0.000000
1 1 1 1 4162.603472 123.948630 24.325510 -10.000000 0.000000 0.000000 0.000000 0.000000
1 1 1 1 4162.603472 123.948680 24.325510 -10.000000 0.000000 0.000000 0.000000 0.000000
1 1 1 1 4162.603472 123.948730 24.325510 -10.000000 0.000000 0.000000 0.000000 0.000000
1 1 1 1 4162.603472 123.948780 24.325510 -10.000000 0.000000 0.000000 0.000000 0.000000
1 1 1 1 4162.603472 123.948830 24.325510 -10.000000 0.000000 0.000000 0.000000 0.000000
1 1 1 1 4162.603472 123.948880 24.325510 -10.000000 0.000000 0.000000 0.000000 0.000000
1 1 1 1 4162.603472 123.948930 24.325510 -10.000000 0.000000 0.000000 0.000000 0.000000
1 1 1 1 4162.603472 123.948980 24.325510 -10.000000 0.000000 0.000000 0.000000 0.000000
1 1 1 1 4162.603472 123.949030 24.325510 -10.000000 0.000000 0.000000 0.000000 0.000000
1 1 1 1 4162.603472 123.949080 24.325510 -10.000000 0.000000 0.000000 0.000000 0.000000
1 1 1 1 4162.603472 123.949130 24.325510 -10.000000 0.000000 0.000000 0.000000 0.000000
1 1 1 1 4162.603472 123.949180 24.325510 -10.000000 0.000000 0.000000 0.000000 0.000000
1 1 1 1 4162.603472 123.949230 24.325510 -10.000000 0.000000 0.000000 0.000000 0.000000
1 1 1 1 4162.603472 123.949280 24.325510 -10.000000 0.000000 0.000000 0.000000 0.000000
1 1 1 1 4162.603472 123.949330 24.325510 -10.000000 0.000000 0.000000 0.000000 0.000000
1 1 1 1 4162.603472 123.949380 24.325510 -10.000000 0.000000 0.000000 0.000000 0.000000
1 1 1 1 4162.603472 123.949430 24.325510 -10.000000 0.000000 0.000000 0.000000 0.000000
1 1 1 1 4162.603472 123.949480 24.325510 -10.000000 0.000000 0.000000 0.000000 0.000000
1 1 1 1 4162.603472 123.949530 24.325510 -10.000000 0.000000 0.000000 0.000000 0.000000
1 1 1 1 4162.603472 123.949580 24.325510 -10.000000 0.000000 0.000000 0.000000 0.000000
1 1 1 1 4162.603472 123.949630 24.325510 -10.000000 0.000000 0.000000 0.000000 0.000000
1 1 1 1 4162.603472 123.949680 24.325510 -10.000000 0.000000 0.000000 0.000000 0.000000
1 1 1 1 4162.603472 123.949730 24.325510 -10.000000 0.000000 0.000000 0.000000 0.000000
1 1 1 1 4162.603472 123.949780 24.325510 -10.000000 0.000000 0.000000 0.000000 0.000000
1 1 1 1 4162.603472 123.949830 24.325510 -10.000000 0.000000 0.000000 0.000000 0.000000
1 1 1 1 4162.603472 123.949880 24.325510 -10.000000 0.000000 0.000000 0.000000 0.000000
1 1 1 1 4162.603472 123.949930 24.325510 -10.000000 0.000000 0.000000 0.000000 0.000000
1 1 1 1 4162.603472 123.949980 24.325510 -10.000000 0.000000 0.000000 0.000000 0.000000
1 1 1 1 4162.603472 123.950030 24.325510 -10.000000 0.000000 0.000000 0.000000 0.000000
1 1 1 1 4162.603472 123.950080 24.325510 -10.000000 0.000000 0.000000 0.000000 0.000000
1 1 1 1 4162.603472 123.950130 24.325510 -10.000000 0.000000 0.000000 0.000000 0.000000
1 1 1 1 4162.603472 123.950180 24.325510 -10.000000 0.000000 0.000000 0.000000 0.000000
1 1 1 1 4162.603472 123.950230 24.325510 -10.000000 0.000000 0.000000 0.000000 0.000000
1 1 1 1 4162.603472 123.950280 24.325510 -10.000000 0.000000 0.000000 0.000000 0.000000
1 1 1 1 4162.603472 123.950330 24.325510 -10.000000 0.000000 0.000000 0.000000 0.000000
1 1 1 1 4162.603472 123.950380 24.325510 -10.000000 0.000000 0.000000 0.000000 0.000000
1 1 1 1 4162.603472 123.950430 24.325510 -10.000000 0.000000 0.000000 0.000000 0.000000
1 1 1 1 4162.603472 123.950480 24.325510 -10.000000 0.000000 0.000000 0.000000 0.000000
1 1 1 1 4162.603472 123.950530 24.325510 -10.000000 0.000000 0.000000 0.000000 0.000000
1 1 1 1 4162.603472 123.945580 24.325560 -10.000000 0.000000 0.000000 0.000000 0.000000
1 1 1 1 4162.603472 123.945630 24.325560 -10.000000 0.000000 0.000000 0.000000 0.000000
1 1 1 1 4162.603472 123.945680 24.325560 -10.000000 0.000000 0.000000 0.000000 0.000000
1 1 1 1 4162.603472 123.945730 24.325560 -10.000000 0.000000 0.000000 0.000000 0.000000
1 1 1 1 4162.603472 123.945780 24.325560 -10.000000 0.000000 0.000000 0.000000 0.000000
1 1 1 1 4162.603472 123.945830 24.325560 -10.000000 0.000000 0.000000 0.000000 0.000000
1 1 1 1 4162.603472 123.945880 24.325560 -10.000000 0.000000 0.000000 0.000000 0.000000
1 1 1 1 4162.603472 123.945930 24.325560 -10.000000 0.000000 0.000000 0.000000 0.000000
1 1 1 1 4162.603472 123.945980 24.325560 -10.000000 0.000000 0.000000 0.000000 0.000000
1 1 1 1 4162.603472 123.946030 24.325560 -10.000000 0.000000 0.000000 0.000000 0.000000
1 1 1 1 4162.603472 123.946080 24.325560 -10.000000 0.000000 0.000000 0.000000 0.000000
1 1 1 1 4162.603472 123.946130 24.325560 -10.000000 0.000000 0.000000 0.000000 0.000000
1 1 1 1 4162.603472 123.946180 24.325560 -10.000000 0.000000 0.000000 0.000000 0.000000
1 1 1 1 4162.603472 123.946230 24.325560 -10.000000 0.000000 0.000000 0.000000 0.000000
1 1 1 1 4162.603472 123.946280 24.325560 -10.000000 0.000000 0.000000 0.000000 0.000000
1 1 1 1 4162.603472 123.946330 24.325560 -10.000000 0.000000 0.000000 0.000000 0.000000
1 1 1 1 4162.603472 123.946380 24.325560 -10.000000 0.000000 0.000000 0.000000 0.000000
1 1 1 1 4162.603472 123.946430 24.325560 -10.000000 0.000000 0.000000 0.000000 0.000000
1 1 1 1 4162.603472 123.946480 24.325560 -10.000000 0.000000 0.000000 0.000000 0.000000
1 1 1 1 4162.603472 123.946530 24.325560 -10.000000 0.000000 0.000000 0.000000 0.000000
1 1 1 1 4162.603472 123.946580 24.325560 -10.000000 0.000000 0.000000 0.000000 0.000000
1 1 1 1 4162.603472 123.946630 24.325560 -10.000000 0.000000 0.000000 0.000000 0.000000
1 1 1 1 4162.603472 123.946680 24.325560 -10.000000 0.000000 0.000000 0.000000 0.000000
1 1 1 1 4162.603472 123.946730 24.325560 -10.000000 0.000000 0.000000 0.000000 0.000000
1 1 1 1 4162.603472 123.946780 24.325560 -10.000000 0.000000 0.000000 0.000000 0.000000
1 1 1 1 4162.603472 123.946830 24.325560 -10.000000 0.000000 0.000000 0.000000 0.000000
1 1 1 1 4162.603472 123.946880 24.325560 -10.000000 0.000000 0.000000 0.000000 0.000000
1 1 1 1 4162.603472 123.946930 24.325560 -10.000000 0.000000 0.000000 0.000000 0.000000
1 1 1 1 4162.603472 123.946980 24.325560 -10.000000 0.000000 0.000000 0.000000 0.000000
1 1 1 1 4162.603472 123.947030 24.325560 -10.000000 0.000000 0.000000 0.000000 0.000000
1 1 1 1 4162.603472 123.947080 24.325560 -10.000000 0.000000 0.000000 0.000000 0.000000
1 1 1 1 4162.603472 123.947130 24.325560 -10.000000 0.000000 0.000000 0.000000 0.000000
1 1 1 1 4162.603472 123.947180 24.325560 -10.000000 0.000000 0.000000 0.000000 0.000000
1 1 1 1 4162.603472 123.947230 24.325560 -10.000000 0.000000 0.000000 0.000000 0.000000
1 1 1 1 4162.603472 123.947280 24.325560 -10.000000 0.000000 0.000000 0.000000 0.000000
1 1 1 1 4162.603472 123.947330 24.325560 -10.000000 0.000000 0.000000 0.000000 0.000000
1 1 1 1 4162.603472 123.947380 24.325560 -10.000000 0.000000 0.000000 0.000000 0.000000
1 1 1 1 4162.603472 123.947430 24.325560 -10.000000 0.000000 0.000000 0.000000 0.000000
1 1 1 1 4162.603472 123.947480 24.325560 -10.000000 0.000000 0.000000 0.000000 0.000000
1 1 1 1 4162.603472 123.947530 24.325560 -10.000000 0.000000 0.000000 0.000000 0.000000
1 1 1 1 4162.603472 123.947580 24.325560 -10.000000 0.000000 0.000000 0.000000 0.000000
1 1 1 1 4162.603472 123.947630 24.325560 -10.000000 0.000000 0.000000 0.000000 0.000000
1 1 1 1 4162.603472 123.947680 24.325560 -10.000000 0.000000 0.000000 0.000000 0.000000
1 1 1 1 4162.603472 123.947730 24.325560 -10.000000 0.000000 0.000000 0.000000 0.000000
1 1 1 1 4162.603472 123.947780 24.325560 -10.000000 0.000000 0.000000 0.000000 0.000000
1 1 1 1 4162.603472 123.947830 24.325560 -10.000000 0.000000 0.000000 0.000000 0.000000
1 1 1 1 4162.603472 123.947880 24.325560 -10.000000 0.000000 0.000000 0.000000 0.000000
1 1 1 1 4162.603472 123.947930 24.325560 -10.000000 0.000000 0.000000 0.000000 0.000000
1 1 1 1 4162.603472 123.947980 24.325560 -10.000000 0.000000 0.000000 0.000000 0.000000
1 1 1 1 4162.603472 123.948030 24.325560 -10.000000 0.000000 0.000000 0.000000 0.000000
1 1 1 1 4162.603472 123.948080 24.325560 -10.000000 0.000000 0.000000 0.000000 0.000000
1 1 1 1 4162.603472 123.948130 24.325560 -10.000000 0.000000 0.000000 0.000000 0.000000
1 1 1 1 4162.603472 123.948180 24.325560 -10.000000 0.000000 0.000000 0.000000 0.000000
1 1 1 1 4162.603472 123.948230 24.325560 -10.000000 0.000000 0.000000 0.000000 0.000000
1 1 1 1 4162.603472 123.948280 24.325560 -10.000000 0.000000 0.000000 0.000000 0.000000
1 1 1 1 4162.603472 123.948330 24.325560 -10.000000 0.000000 0.000000 0.000000 0.000000
1 1 1 1 4162.603472 123.948380 24.325560 -10.000000 0.000000 0.000000 0.000000 0.000000
1 1 1 1 4162.603472 123.948430 24.325560 -10.000000 0.000000 0.000000 0.000000 0.000000
1 1 1 1 4162.603472 123.948480 24.325560 -10.000000 0.000000 0.000000 0.000000 0.000000
1 1 1 1 4162.603472 123.948530 24.325560 -10.000000 0.000000 0.000000 0.000000 0.000000
1 1 1 1 4162.603472 123.948580 24.325560 -10.000000 0.000000 0.000000 0.000000 0.000000
1 1 1 1 4162.603472 123.948630 24.325560 -10.000000 0.000000 0.000000 0.000000 0.000000
1 1 1 1 4162.603472 123.948680 24.325560 -10.000000 0.000000 0.000000 0.000000 0.000000
1 1 1 1 4162.603472 123.948730 24.325560 -10.000000 0.000000 0.000000 0.000000 0.000000
1 1 1 1 4162.603472 123.948780 24.325560 -10.000000 0.000000 0.000000 0.000000 0.000000
1 1 1 1 4162.603472 123.948830 24.325560 -10.000000 0.000000 0.000000 0.000000 0.000000
1 1 1 1 4162.603472 123.948880 24.325560 -10.000000 0.000000 0.000000 0.000000 0.000000
1 1 1 1 4162.603472 123.948930 24.325560 -10.000000 0.000000 0.000000 0.000000 0.000000
1 1 1 1 4162.603472 123.948980 24.325560 -10.000000 0.000000 0.000000 0.000000 0.000000
1 1 1 1 4162.603472 123.949030 24.325560 -10.000000 0.000000 0.000000 0.000000 0.000000
1 1 1 1 4162.603472 123.949080 24.325560 -10.000000 0.000000 0.000000 0.000000 0.000000
1 1 1 1 4162.603472 123.949130 24.325560 -10.000000 0.000000 0.000000 0.000000 0.000000
1 1 1 1 4162.603472 123.949180 24.325560 -10.000000 0.000000 0.000000 0.000000 0.000000
1 1 1 1 4162.603472 123.949230 24.325560 -10.000000 0.000000 0.000000 0.000000 0.000000
1 1 1 1 4162.603472 123.949280 24.325560 -10.000000 0.000000 0.000000 0.000000 0.000000
1 1 1 1 4162.603472 123.949330 24.325560 -10.000000 0.000000 0.000000 0.000000 0.000000
1 1 1 1 4162.603472 123.949380 24.325560 -10.000000 0.000000 0.000000 0.000000 0.000000
1 1 1 1 4162.603472 123.949430 24.325560 -10.000000 0.000000 0.000000 0.000000 0.000000
1 1 1 1 4162.603472 123.949480 24.325560 -10.000000 0.000000 0.000000 0.000000 0.000000
1 1 1 1 4162.603472 123.949530 24.325560 -10.000000 0.000000 0.000000 0.000000 0.000000
1 1 1 1 4162.603472 123.949580 24.325560 -10.000000 0.000000 0.000000 0.000000 0.000000
1 1 1 1 4162.603472 123.949630 24.325560 -10.000000 0.000000 0.000000 0.000000 0.000000
1 1 1 1 4162.603472 123.949680 24.325560 -10.000000 0.000000 0.000000 0.000000 0.000000
1 1 1 1 4162.603472 123.949730 24.325560 -10.000000 0.000000 0.000000 0.000000 0.000000
1 1 1 1 4162.603472 123.949780 24.325560 -10.000000 0.000000 0.000000 0.000000 0.000000
1 1 1 1 4162.603472 123.949830 24.325560 -10.000000 0.000000 0.000000 0.000000 0.000000
1 1 1 1 4162.603472 123.949880 24.325560 -10.000000 0.000000 0.000000 0.000000 0.000000
1 1 1 1 4162.603472 123.949930 24.325560 -10.000000 0.000000 0.000000 0.000000 0.000000
1 1 1 1 4162.603472 123.949980 24.325560 -10.000000 0.000000 0.000000 0.000000 0.000000
1 1 1 1 4162.603472 123.950030 24.325560 -10.000000 0.000000 0.000000 0.000000 0.000000
1 1 1 1 4162.603472 123.950080 24.325560 -10.000000 0.000000 0.000000 0.000000 0.000000
1 1 1 1 4162.603472 123.950130 24.325560 -10.000000 0.000000 0.000000 0.000000 0.000000
1 1 1 1 4162.603472 123.950180 24.325560 -10.000000 0.000000 0.000000 0.000000 0.000000
1 1 1 1 4162.603472 123.950230 24.325560 -10.000000 0.000000 0.000000 0.000000 0.000000
1 1 1 1 4162.603472 123.950280 24.325560 -10.000000 0.000000 0.000000 0.000000 0.000000
1 1 1 1 4162.603472 123.950330 24.325560 -10.000000 0.000000 0.000000 0.000000 0.000000
1 1 1 1 4162.603472 123.950380 24.325560 -10.000000 0.000000 0.000000 0.000000 0.000000
1 1 1 1 4162.603472 123.950430 24.325560 -10.000000 0.000000 0.000000 0.000000 0.000000
1 1 1 1 4162.603472 123.950480 24.325560 -10.000000 0.000000 0.000000 0.000000 0.000000
1 1 1 1 4162.603472 123.950530 24.325560 -10.000000 0.000000 0.000000 0.000000 0.000000
1 1 1 1 4162.603472 123.945580 24.325610 -10.000000 0.000000 0.000000 0.000000 0.000000
1 1 1 1 4162.603472 123.945630 24.325610 -10.000000 0.000000 0.000000 0.000000 0.000000
1 1 1 1 4162.603472 123.945680 24.325610 -10.000000 0.000000 0.000000 0.000000 0.000000
1 1 1 1 4162.603472 123.945730 24.325610 -10.000000 0.000000 0.000000 0.000000 0.000000
1 1 1 1 4162.603472 123.945780 24.325610 -10.000000 0.000000 0.000000 0.000000 0.000000
1 1 1 1 4162.603472 123.945830 24.325610 -10.000000 0.000000 0.000000 0.000000 0.000000
1 1 1 1 4162.603472 123.945880 24.325610 -10.000000 0.000000 0.000000 0.000000 0.000000
1 1 1 1 4162.603472 123.945930 24.325610 -10.000000 0.000000 0.000000 0.000000 0.000000
1 1 1 1 4162.603472 123.945980 24.325610 -10.000000 0.000000 0.000000 0.000000 0.000000
1 1 1 1 4162.603472 123.946030 24.325610 -10.000000 0.000000 0.000000 0.000000 0.000000
1 1 1 1 4162.603472 123.946080 24.325610 -10.000000 0.000000 0.000000 0.000000 0.000000
1 1 1 1 4162.603472 123.946130 24.325610 -10.000000 0.000000 0.000000 0.000000 0.000000
1 1 1 1 4162.603472 123.946180 24.325610 -10.000000 0.000000 0.000000 0.000000 0.000000
1 1 1 1 4162.603472 123.946230 24.325610 -10.000000 0.000000 0.000000 0.000000 0.000000
1 1 1 1 4162.603472 123.946280 24.325610 -10.000000 0.000000 0.000000 0.000000 0.000000
1 1 1 1 4162.603472 123.946330 24.325610 -10.000000 0.000000 0.000000 0.000000 0.000000
1 1 1 1 4162.603472 123.946380 24.325610 -10.000000 0.000000 0.000000 0.000000 0.000000
1 1 1 1 4162.603472 123.946430 24.325610 -10.000000 0.000000 0.000000 0.000000 0.000000
1 1 1 1 4162.603472 123.946480 24.325610 -10.000000 0.000000 0.000000 0.000000 0.000000
1 1 1 1 4162.603472 123.946530 24.325610 -10.000000 0.000000 0.000000 0.000000 0.000000
1 1 1 1 4162.603472 123.946580 24.325610 -10.000000 0.000000 0.000000 0.000000 0.000000
1 1 1 1 4162.603472 123.946630 24.325610 -10.000000 0.000000 0.000000 0.000000 0.000000
1 1 1 1 4162.603472 123.946680 24.325610 -10.000000 0.000000 0.000000 0.000000 0.000000
1 1 1 1 4162.603472 123.946730 24.325610 -10.000000 0.000000 0.000000 0.000000 0.000000
1 1 1 1 4162.603472 123.946780 24.325610 -10.000000 0.000000 0.000000 0.000000 0.000000
1 1 1 1 4162.603472 123.946830 24.325610 -10.000000 0.000000 0.000000 0.000000 0.000000
1 1 1 1 4162.603472 123.946880 24.325610 -10.000000 0.000000 0.000000 0.000000 0.000000
1 1 1 1 4162.603472 123.946930 24.325610 -10.000000 0.000000 0.000000 0.000000 0.000000
1 1 1 1 4162.603472 123.946980 24.325610 -10.000000 0.000000 0.000000 0.000000 0.000000
1 1 1 1 4162.603472 123.947030 24.325610 -10.000000 0.000000 0.000000 0.000000 0.000000
1 1 1 1 4162.603472 123.947080 24.325610 -10.000000 0.000000 0.000000 0.000000 0.000000
1 1 1 1 4162.603472 123.947130 24.325610 -10.000000 0.000000 0.000000 0.000000 0.000000
1 1 1 1 4162.603472 123.947180 24.325610 -10.000000 0.000000 0.000000 0.000000 0.000000
1 1 1 1 4162.603472 123.947230 24.325610 -10.000000 0.000000 0.000000 0.000000 0.000000
1 1 1 1 4162.603472 123.947280 24.325610 -10.000000 0.000000 0.000000 0.000000 0.000000
1 1 1 1 4162.603472 123.947330 24.325610 -10.000000 0.000000 0.000000 0.000000 0.000000
1 1 1 1 4162.603472 123.947380 24.325610 -10.000000 0.000000 0.000000 0.000000 0.000000
1 1 1 1 4162.603472 123.947430 24.325610 -10.000000 0.000000 0.000000 0.000000 0.000000
1 1 1 1 4162.603472 123.947480 24.325610 -10.000000 0.000000 0.000000 0.000000 0.000000
1 1 1 1 4162.603472 123.947530 24.325610 -10.000000 0.000000 0.000000 0.000000 0.000000
1 1 1 1 4162.603472 123.947580 24.325610 -10.000000 0.000000 0.000000 0.000000 0.000000
1 1 1 1 4162.603472 123.947630 24.325610 -10.000000 0.000000 0.000000 0.000000 0.000000
1 1 1 1 4162.603472 123.947680 24.325610 -10.000000 0.000000 0.000000 0.000000 0.000000
1 1 1 1 4162.603472 123.947730 24.325610 -10.000000 0.000000 0.000000 0.000000 0.000000
1 1 1 1 4162.603472 123.947780 24.325610 -10.000000 0.000000 0.000000 0.000000 0.000000
1 1 1 1 4162.603472 123.947830 24.325610 -10.000000 0.000000 0.000000 0.000000 0.000000
1 1 1 1 4162.603472 123.947880 24.325610 -10.000000 0.000000 0.000000 0.000000 0.000000
1 1 1 1 4162.603472 123.947930 24.325610 -10.000000 0.000000 0.000000 0.000000 0.000000
1 1 1 1 4162.603472 123.947980 24.325610 -10.000000 0.000000 0.000000 0.000000 0.000000
1 1 1 1 4162.603472 123.948030 24.325610 -10.000000 0.000000 0.000000 0.000000 0.000000
1 1 1 1 4162.603472 123.948080 24.325610 -10.000000 0.000000 0.000000 0.000000 0.000000
1 1 1 1 4162.603472 123.948130 24.325610 -10.000000 0.000000 0.000000 0.000000 0.000000
1 1 1 1 4162.603472 123.948180 24.325610 -10.000000 0.000000 0.000000 0.000000 0.000000
1 1 1 1 4162.603472 123.948230 24.325610 -10.000000 0.000000 0.000000 0.000000 0.000000
1 1 1 1 4162.603472 123.948280 24.325610 -10.000000 0.000000 0.000000 0.000000 0.000000
1 1 1 1 4162.603472 123.948330 24.325610 -10.000000 0.000000 0.000000 0.000000 0.000000
1 1 1 1 4162.603472 123.948380 24.325610 -10.000000 0.000000 0.000000 0.000000 0.000000
1 1 1 1 4162.603472 123.948430 24.325610 -10.000000 0.000000 0.000000 0.000000 0.000000
1 1 1 1 4162.603472 123.948480 24.325610 -10.000000 0.000000 0.000000 0.000000 0.000000
1 1 1 1 4162.603472 123.948530 24.325610 -10.000000 0.000000 0.000000 0.000000 0.000000
1 1 1 1 4162.603472 123.948580 24.325610 -10.000000 0.000000 0.000000 0.000000 0.000000
[...]
1 1 1 1 4162.603472 123.947730 24.330110 -10.000000 0.000000 0.000000 0.000000 0.000000
1 1 1 1 4162.603472 123.947780 24.330110 -10.000000 0.000000 0.000000 0.000000 0.000000
1 1 1 1 4162.603472 123.947830 24.330110 -10.000000 0.000000 0.000000 0.000000 0.000000
1 1 1 1 4162.603472 123.947880 24.330110 -10.000000 0.000000 0.000000 0.000000 0.000000
1 1 1 1 4162.603472 123.947930 24.330110 -10.000000 0.000000 0.000000 0.000000 0.000000
1 1 1 1 4162.603472 123.947980 24.330110 -10.000000 0.000000 0.000000 0.000000 0.000000
1 1 1 1 4162.603472 123.948030 24.330110 -10.000000 0.000000 0.000000 0.000000 0.000000
1 1 1 1 4162.603472 123.948080 24.330110 -10.000000 0.000000 0.000000 0.000000 0.000000
1 1 1 1 4162.603472 123.948130 24.330110 -10.000000 0.000000 0.000000 0.000000 0.000000
1 1 1 1 4162.603472 123.948180 24.330110 -10.000000 0.000000 0.000000 0.000000 0.000000
1 1 1 1 4162.603472 123.948230 24.330110 -10.000000 0.000000 0.000000 0.000000 0.000000
1 1 1 1 4162.603472 123.948280 24.330110 -10.000000 0.000000 0.000000 0.000000 0.000000
1 1 1 1 4162.603472 123.948330 24.330110 -10.000000 0.000000 0.000000 0.000000 0.000000
1 1 1 1 4162.603472 123.948380 24.330110 -10.000000 0.000000 0.000000 0.000000 0.000000
1 1 1 1 4162.603472 123.948430 24.330110 -10.000000 0.000000 0.000000 0.000000 0.000000
1 1 1 1 4162.603472 123.948480 24.330110 -10.000000 0.000000 0.000000 0.000000 0.000000
1 1 1 1 4162.603472 123.948530 24.330110 -10.000000 0.000000 0.000000 0.000000 0.000000
1 1 1 1 4162.603472 123.948580 24.330110 -10.000000 0.000000 0.000000 0.000000 0.000000
1 1 1 1 4162.603472 123.948630 24.330110 -10.000000 0.000000 0.000000 0.000000 0.000000
1 1 1 1 4162.603472 123.948680 24.330110 -10.000000 0.000000 0.000000 0.000000 0.000000
1 1 1 1 4162.603472 123.948730 24.330110 -10.000000 0.000000 0.000000 0.000000 0.000000
1 1 1 1 4162.603472 123.948780 24.330110 -10.000000 0.000000 0.000000 0.000000 0.000000
1 1 1 1 4162.603472 123.948830 24.330110 -10.000000 0.000000 0.000000 0.000000 0.000000
1 1 1 1 4162.603472 123.948880 24.330110 -10.000000 0.000000 0.000000 0.000000 0.000000
1 1 1 1 4162.603472 123.948930 24.330110 -10.000000 0.000000 0.000000 0.000000 0.000000
1 1 1 1 4162.603472 123.948980 24.330110 -10.000000 0.000000 0.000000 0.000000 0.000000
1 1 1 1 4162.603472 123.949030 24.330110 -10.000000 0.000000 0.000000 0.000000 0.000000
1 1 1 1 4162.603472 123.949080 24.330110 -10.000000 0.000000 0.000000 0.000000 0.000000
1 1 1 1 4162.603472 123.949130 24.330110 -10.000000 0.000000 0.000000 0.000000 0.000000
1 1 1 1 4162.603472 123.949180 24.330110 -10.000000 0.000000 0.000000 0.000000 0.000000
1 1 1 1 4162.603472 123.949230 24.330110 -10.000000 0.000000 0.000000 0.000000 0.000000
1 1 1 1 4162.603472 123.949280 24.330110 -10.000000 0.000000 0.000000 0.000000 0.000000
1 1 1 1 4162.603472 123.949330 24.330110 -10.000000 0.000000 0.000000 0.000000 0.000000
1 1 1 1 4162.603472 123.949380 24.330110 -10.000000 0.000000 0.000000 0.000000 0.000000
1 1 1 1 4162.603472 123.949430 24.330110 -10.000000 0.000000 0.000000 0.000000 0.000000
1 1 1 1 4162.603472 123.949480 24.330110 -10.000000 0.000000 0.000000 0.000000 0.000000
1 1 1 1 4162.603472 123.949530 24.330110 -10.000000 0.000000 0.000000 0.000000 0.000000
1 1 1 1 4162.603472 123.949580 24.330110 -10.000000 0.000000 0.000000 0.000000 0.000000
1 1 1 1 4162.603472 123.949630 24.330110 -10.000000 0.000000 0.000000 0.000000 0.000000
1 1 1 1 4162.603472 123.949680 24.330110 -10.000000 0.000000 0.000000 0.000000 0.000000
1 1 1 1 4162.603472 123.949730 24.330110 -10.000000 0.000000 0.000000 0.000000 0.000000
1 1 1 1 4162.603472 123.949780 24.330110 -10.000000 0.000000 0.000000 0.000000 0.000000
1 1 1 1 4162.603472 123.949830 24.330110 -10.000000 0.000000 0.000000 0.000000 0.000000
1 1 1 1 4162.603472 123.949880 24.330110 -10.000000 0.000000 0.000000 0.000000 0.000000
1 1 1 1 4162.603472 123.949930 24.330110 -10.000000 0.000000 0.000000 0.000000 0.000000
1 1 1 1 4162.603472 123.949980 24.330110 -10.000000 0.000000 0.000000 0.000000 0.000000
1 1 1 1 4162.603472 123.950030 24.330110 -10.000000 0.000000 0.000000 0.000000 0.000000
1 1 1 1 4162.603472 123.950080 24.330110 -10.000000 0.000000 0.000000 0.000000 0.000000
1 1 1 1 4162.603472 123.950130 24.330110 -10.000000 0.000000 0.000000 0.000000 0.000000
1 1 1 1 4162.603472 123.950180 24.330110 -10.000000 0.000000 0.000000 0.000000 0.000000
1 1 1 1 4162.603472 123.950230 24.330110 -10.000000 0.000000 0.000000 0.000000 0.000000
1 1 1 1 4162.603472 123.950280 24.330110 -10.000000 0.000000 0.000000 0.000000 0.000000
1 1 1 1 4162.603472 123.950330 24.330110 -10.000000 0.000000 0.000000 0.000000 0.000000
1 1 1 1 4162.603472 123.950380 24.330110 -10.000000 0.000000 0.000000 0.000000 0.000000
1 1 1 1 4162.603472 123.950430 24.330110 -10.000000 0.000000 0.000000 0.000000 0.000000
1 1 1 1 4162.603472 123.950480 24.330110 -10.000000 0.000000 0.000000 0.000000 0.000000
1 1 1 1 4162.603472 123.950530 24.330110 -10.000000 0.000000 0.000000 0.000000 0.000000
1 1 1 1 4162.603472 123.945580 24.330160 -10.000000 0.000000 0.000000 0.000000 0.000000
1 1 1 1 4162.603472 123.945630 24.330160 -10.000000 0.000000 0.000000 0.000000 0.000000
1 1 1 1 4162.603472 123.945680 24.330160 -10.000000 0.000000 0.000000 0.000000 0.000000
1 1 1 1 4162.603472 123.945730 24.330160 -10.000000 0.000000 0.000000 0.000000 0.000000
1 1 1 1 4162.603472 123.945780 24.330160 -10.000000 0.000000 0.000000 0.000000 0.000000
1 1 1 1 4162.603472 123.945830 24.330160 -10.000000 0.000000 0.000000 0.000000 0.000000
1 1 1 1 4162.603472 123.945880 24.330160 -10.000000 0.000000 0.000000 0.000000 0.000000
1 1 1 1 4162.603472 123.945930 24.330160 -10.000000 0.000000 0.000000 0.000000 0.000000
1 1 1 1 4162.603472 123.945980 24.330160 -10.000000 0.000000 0.000000 0.000000 0.000000
1 1 1 1 4162.603472 123.946030 24.330160 -10.000000 0.000000 0.000000 0.000000 0.000000
1 1 1 1 4162.603472 123.946080 24.330160 -10.000000 0.000000 0.000000 0.000000 0.000000
1 1 1 1 4162.603472 123.946130 24.330160 -10.000000 0.000000 0.000000 0.000000 0.000000
1 1 1 1 4162.603472 123.946180 24.330160 -10.000000 0.000000 0.000000 0.000000 0.000000
1 1 1 1 4162.603472 123.946230 24.330160 -10.000000 0.000000 0.000000 0.000000 0.000000
1 1 1 1 4162.603472 123.946280 24.330160 -10.000000 0.000000 0.000000 0.000000 0.000000
1 1 1 1 4162.603472 123.946330 24.330160 -10.000000 0.000000 0.000000 0.000000 0.000000
1 1 1 1 4162.603472 123.946380 24.330160 -10.000000 0.000000 0.000000 0.000000 0.000000
1 1 1 1 4162.603472 123.946430 24.330160 -10.000000 0.000000 0.000000 0.000000 0.000000
1 1 1 1 4162.603472 123.946480 24.330160 -10.000000 0.000000 0.000000 0.000000 0.000000
1 1 1 1 4162.603472 123.946530 24.330160 -10.000000 0.000000 0.000000 0.000000 0.000000
1 1 1 1 4162.603472 123.946580 24.330160 -10.000000 0.000000 0.000000 0.000000 0.000000
1 1 1 1 4162.603472 123.946630 24.330160 -10.000000 0.000000 0.000000 0.000000 0.000000
1 1 1 1 4162.603472 123.946680 24.330160 -10.000000 0.000000 0.000000 0.000000 0.000000
1 1 1 1 4162.603472 123.946730 24.330160 -10.000000 0.000000 0.000000 0.000000 0.000000
1 1 1 1 4162.603472 123.946780 24.330160 -10.000000 0.000000 0.000000 0.000000 0.000000
1 1 1 1 4162.603472 123.946830 24.330160 -10.000000 0.000000 0.000000 0.000000 0.000000
1 1 1 1 4162.603472 123.946880 24.330160 -10.000000 0.000000 0.000000 0.000000 0.000000
1 1 1 1 4162.603472 123.946930 24.330160 -10.000000 0.000000 0.000000 0.000000 0.000000
1 1 1 1 4162.603472 123.946980 24.330160 -10.000000 0.000000 0.000000 0.000000 0.000000
1 1 1 1 4162.603472 123.947030 24.330160 -10.000000 0.000000 0.000000 0.000000 0.000000
1 1 1 1 4162.603472 123.947080 24.330160 -10.000000 0.000000 0.000000 0.000000 0.000000
1 1 1 1 4162.603472 123.947130 24.330160 -10.000000 0.000000 0.000000 0.000000 0.000000
1 1 1 1 4162.603472 123.947180 24.330160 -10.000000 0.000000 0.000000 0.000000 0.000000
1 1 1 1 4162.603472 123.947230 24.330160 -10.000000 0.000000 0.000000 0.000000 0.000000
1 1 1 1 4162.603472 123.947280 24.330160 -10.000000 0.000000 0.000000 0.000000 0.000000
1 1 1 1 4162.603472 123.947330 24.330160 -10.000000 0.000000 0.000000 0.000000 0.000000
1 1 1 1 4162.603472 123.947380 24.330160 -10.000000 0.000000 0.000000 0.000000 0.000000
1 1 1 1 4162.603472 123.947430 24.330160 -10.000000 0.000000 0.000000 0.000000 0.000000
1 1 1 1 4162.603472 123.947480 24.330160 -10.000000 0.000000 0.000000 0.000000 0.000000
1 1 1 1 4162.603472 123.947530 24.330160 -10.000000 0.000000 0.000000 0.000000 0.000000
1 1 1 1 4162.603472 123.947580 24.330160 -10.000000 0.000000 0.000000 0.000000 0.000000
1 1 1 1 4162.603472 123.947630 24.330160 -10.000000 0.000000 0.000000 0.000000 0.000000
1 1 1 1 4162.603472 123.947680 24.330160 -10.000000 0.000000 0.000000 0.000000 0.000000
1 1 1 1 4162.603472 123.947730 24.330160 -10.000000 0.000000 0.000000 0.000000 0.000000
1 1 1 1 4162.603472 123.947780 24.330160 -10.000000 0.000000 0.000000 0.000000 0.000000
1 1 1 1 4162.603472 123.947830 24.330160 -10.000000 0.000000 0.000000 0.000000 0.000000
1 1 1 1 4162.603472 123.947880 24.330160 -10.000000 0.000000 0.000000 0.000000 0.000000
1 1 1 1 4162.603472 123.947930 24.330160 -10.000000 0.000000 0.000000 0.000000 0.000000
1 1 1 1 4162.603472 123.947980 24.330160 -10.000000 0.000000 0.000000 0.000000 0.000000
1 1 1 1 4162.603472 123.948030 24.330160 -10.000000 0.000000 0.000000 0.000000 0.000000
1 1 1 1 4162.603472 123.948080 24.330160 -10.000000 0.000000 0.000000 0.000000 0.000000
1 1 1 1 4162.603472 123.948130 24.330160 -10.000000 0.000000 0.000000 0.000000 0.000000
1 1 1 1 4162.603472 123.948180 24.330160 -10.000000 0.000000 0.000000 0.000000 0.000000
1 1 1 1 4162.603472 123.948230 24.330160 -10.000000 0.000000 0.000000 0.000000 0.000000
1 1 1 1 4162.603472 123.948280 24.330160 -10.000000 0.000000 0.000000 0.000000 0.000000
1 1 1 1 4162.603472 123.948330 24.330160 -10.000000 0.000000 0.000000 0.000000 0.000000
1 1 1 1 4162.603472 123.948380 24.330160 -10.000000 0.000000 0.000000 0.000000 0.000000
1 1 1 1 4162.603472 123.948430 24.330160 -10.000000 0.000000 0.000000 0.000000 0.000000
1 1 1 1 4162.603472 123.948480 24.330160 -10.000000 0.000000 0.000000 0.000000 0.000000
1 1 1 1 4162.603472 123.948530 24.330160 -10.000000 0.000000 0.000000 0.000000 0.000000
1 1 1 1 4162.603472 123.948580 24.330160 -10.000000 0.000000 0.000000 0.000000 0.000000
1 1 1 1 4162.603472 123.948630 24.330160 -10.000000 0.000000 0.000000 0.000000 0.000000
1 1 1 1 4162.603472 123.948680 24.330160 -10.000000 0.000000 0.000000 0.000000 0.000000
1 1 1 1 4162.603472 123.948730 24.330160 -10.000000 0.000000 0.000000 0.000000 0.000000
1 1 1 1 4162.603472 123.948780 24.330160 -10.000000 0.000000 0.000000 0.000000 0.000000
1 1 1 1 4162.603472 123.948830 24.330160 -10.000000 0.000000 0.000000 0.000000 0.000000
1 1 1 1 4162.603472 123.948880 24.330160 -10.000000 0.000000 0.000000 0.000000 0.000000
1 1 1 1 4162.603472 123.948930 24.330160 -10.000000 0.000000 0.000000 0.000000 0.000000
1 1 1 1 4162.603472 123.948980 24.330160 -10.000000 0.000000 0.000000 0.000000 0.000000
1 1 1 1 4162.603472 123.949030 24.330160 -10.000000 0.000000 0.000000 0.000000 0.000000
1 1 1 1 4162.603472 123.949080 24.330160 -10.000000 0.000000 0.000000 0.000000 0.000000
1 1 1 1 4162.603472 123.949130 24.330160 -10.000000 0.000000 0.000000 0.000000 0.000000
1 1 1 1 4162.603472 123.949180 24.330160 -10.000000 0.000000 0.000000 0.000000 0.000000
1 1 1 1 4162.603472 123.949230 24.330160 -10.000000 0.000000 0.000000 0.000000 0.000000
1 1 1 1 4162.603472 123.949280 24.330160 -10.000000 0.000000 0.000000 0.000000 0.000000
1 1 1 1 4162.603472 123.949330 24.330160 -10.000000 0.000000 0.000000 0.000000 0.000000
1 1 1 1 4162.603472 123.949380 24.330160 -10.000000 0.000000 0.000000 0.000000 0.000000
1 1 1 1 4162.603472 123.949430 24.330160 -10.000000 0.000000 0.000000 0.000000 0.000000
1 1 1 1 4162.603472 123.949480 24.330160 -10.000000 0.000000 0.000000 0.000000 0.000000
1 1 1 1 4162.603472 123.949530 24.330160 -10.000000 0.000000 0.000000 0.000000 0.000000
1 1 1 1 4162.603472 123.949580 24.330160 -10.000000 0.000000 0.000000 0.000000 0.000000
1 1 1 1 4162.603472 123.949630 24.330160 -10.000000 0.000000 0.000000 0.000000 0.000000
1 1 1 1 4162.603472 123.949680 24.330160 -10.000000 0.000000 0.000000 0.000000 0.000000
1 1 1 1 4162.603472 123.949730 24.330160 -10.000000 0.000000 0.000000 0.000000 0.000000
1 1 1 1 4162.603472 123.949780 24.330160 -10.000000 0.000000 0.000000 0.000000 0.000000
1 1 1 1 4162.603472 123.949830 24.330160 -10.000000 0.000000 0.000000 0.000000 0.000000
1 1 1 1 4162.603472 123.949880 24.330160 -10.000000 0.000000 0.000000 0.000000 0.000000
1 1 1 1 4162.603472 123.949930 24.330160 -10.000000 0.000000 0.000000 0.000000 0.000000
1 1 1 1 4162.603472 123.949980 24.330160 -10.000000 0.000000 0.000000 0.000000 0.000000
1 1 1 1 4162.603472 123.950030 24.330160 -10.000000 0.000000 0.000000 0.000000 0.000000
1 1 1 1 4162.603472 123.950080 24.330160 -10.000000 0.000000 0.000000 0.000000 0.000000
1 1 1 1 4162.603472 123.950130 24.330160 -10.000000 0.000000 0.000000 0.000000 0.000000
1 1 1 1 4162.603472 123.950180 24.330160 -10.000000 0.000000 0.000000 0.000000 0.000000
1 1 1 1 4162.603472 123.950230 24.330160 -10.000000 0.000000 0.000000 0.000000 0.000000
1 1 1 1 4162.603472 123.950280 24.330160 -10.000000 0.000000 0.000000 0.000000 0.000000
1 1 1 1 4162.603472 123.950330 24.330160 -10.000000 0.000000 0.000000 0.000000 0.000000
1 1 1 1 4162.603472 123.950380 24.330160 -10.000000 0.000000 0.000000 0.000000 0.000000
1 1 1 1 4162.603472 123.950430 24.330160 -10.000000 0.000000 0.000000 0.000000 0.000000
1 1 1 1 4162.603472 123.950480 24.330160 -10.000000 0.000000 0.000000 0.000000 0.000000
1 1 1 1 4162.603472 123.950530 24.330160 -10.000000 0.000000 0.000000 0.000000 0.000000

!      1  0  1  10   0.00  120.0  150.0   15.000    0.00     0.01     0.0  0.000


!      1  0  1  10   0.00  120.0  150.0   15.000    0.00     0.01     0.0  0.000

 
!
!  GLOSSARY:
!  =========
!
!  This input file provides the initial locations of the float trajectories
!  to compute.
!
!------------------------------------------------------------------------------
! Control Switches.
!------------------------------------------------------------------------------
!
! Lfloats   Switch to control the computation of floats trajectories within
!             nested and/or multiple connected grids. Ngrids values are
!             expected. By default this switch is set to TRUE in "mod_scalars"
!             for all grids when the CPP option FLOATS is activated. The
!             USER can control which grid to process by turning on/off this
!             switch.
!
! Fprint    Switch to control the printing of floats positions to standard
!             output file. This switch can be used to turn of the printing
!             of information whe thousands of floats are released.  This
!             information is still in output floats NetCDF file.
!
! FRREC     Flag to indicate re-start from a previous solution.  Use
!             FRREC=0 for new solutions. In a re-start solution, FRREC
!             is the time index in the floats NetCDF file assigned for
!             initialization.  If FRREC is negative (say FRREC=-1), the
!             floats will re-start from the most recent time record.
!             That is, the initialization record is assigned internally.
!
!------------------------------------------------------------------------------
! Biological behavior.
!------------------------------------------------------------------------------
!
! FBIONAM   If applicable, input script file name containing biological floats
!              behavior model parameters.
!
!------------------------------------------------------------------------------
! Number of floats.
!------------------------------------------------------------------------------
!
!  NFLOATS   Number of floats to release in each nested grid.  Provide
!              the exact number of floats.  These values are used to
!              dynamically allocate the arrays in FLOATS array structure.
!
!------------------------------------------------------------------------------
! Initial float location KEYWORDS.  The model variable name is not used as
! keyword in some parameters.  However, it namce is provided in brackets.
!------------------------------------------------------------------------------
!
!  G         Nested grid number [ng].
!
!  C         Initial horizontal location coordinate type [Fcoor]:
!
!              Fcoor = 0,  rho grid units
!                             0.5 =< Fx0 =< Lm(ng)+0.5,
!                             0.5 =< Fy0 =< Mm(ng)+0.5
!
!              Fcoor = 1,  Fx0 is longitude (west values are negative).
!                          Fy0 is latitude (south values are negative).
!
!  T         Float trajectory type [Ftype]:
!
!              Ftype = 1,  3D Lagrangian floats.
!                          (flt_Lagran)
!
!              Ftype = 2,  Isobaric floats, p=g*(z+zeta)=constant.
!                          (flt_Isobar)
!
!              Ftype = 3,  Geopotential floats, constant depth.
!                          (flt_Geopot)
!
!  N         Number of floats [Fcount] to be released at the (Fx0,Fy0,Fz0)
!              location.  It must be equal or greater than one. If Fcount
!              is greater than one, a cluster distribution of floats
!              centered at (Fx0,Fy0,Fz0) is activated.
!
!              NOTE:  The total number of floats trajectories to compute
!              ====   must add to NFLOATS.
!
!  Ft0       Time (days) of float release after model initialization (real).
!
!  Fx0       Initial float x-location (real; grid units or longitude).
!
!  Fy0       Initial float y-location (real; grid units or latitude).
!
!  Fz0       Initial float z-location (real; vertical level or depth).
!              If Fz0 is less than or equal to zero, Fz0 is the initial
!              depth in meters.  Otherwise, if Fz0 is positive and
!
!                             0 < Fz0 =< N(ng),
!
!              Fz0 is the initial position relative to the W grid
!              (0 = bottom; N = surface).
!
!              If the float trajectory type is Isobaric (Ftype=2) or
!              Geopotential (Ftype=3), Fz0 must be a negative number
!              representing depth in meters. If the float type is
!              Lagrangian (Ftype=1), Fz0 can be a level (positive) or
!              a depth in meters (negative).
!
!              WARNING: If the depth in meters at particular horizontal
!                       is not bounded, the floats are released at the
!                       surface.
!
!  Fdt       Float cluster release time interval (real; days), only used
!              if Fcount > 1:
!
!              Fdt = 0,  Fcount floats will be deployed simultaneously
!                        with a distribution centered at (Fx0,Fy0,Fz0)
!                        and defined by (Fdx,Fdy,Fdz).
!
!              Fdt > 0,  a cluster of floats will be deployed from
!                        (Fx0,Fy0,Fz0) at Fdt intervals until Fcount
!                        floats are released.
!
!  Fdx       Cluster x-distribution parameter (real), only used if
!              Fcount > 1 and Fdt = 0.
!
!  Fdy       Cluster y-distribution parameter (real), only used if
!              Fcount > 1 and Fdt = 0.
!
!  Fdz       Cluster z-distribution parameter (real), only used if
!              Fcount > 1 and Fdt = 0.
!
!            NOTE:  the parameters (Fdx,Fdy,Fdz) can be used to specify
!            ====   any type of cluster distribution, for instance:
!
!                   * Lines of floats:
!
!                         Fdx > 0,  Fdy = 0,  Fdz = 0
!                         Fdx = 0,  Fdy > 0,  Fdz = 0
!                         Fdx = 0,  Fdy = 0,  Fdz > 0
!
!             The USER can use any of these parameters to design any
!             cluster distribution in routine "init_floats.F".
