 Coupled Input File name = coupling_shiraho_reef_10.in

 Model Coupling: 


       Ocean Model MPI nodes: 000 - 005

       Waves Model MPI nodes: 006 - 006

       WAVgrid 01 dt= 600.0 -to- OCNgrid 01 dt=   5.0, CplInt:   600.0 Steps: 001

       OCNgrid 01 dt=   5.0 -to- WAVgrid 01 dt= 600.0, CplInt:   600.0 Steps: 120
--------------------------------------------------------------------------------
 Model Input Parameters:  ROMS/TOMS version 3.7  
                          Saturday - March 2, 2024 -  3:36:29 AM
 --------------------------------------------------------------------------------

SWAN grid   1 is preparing computation


 Shiraho Reef Case

 Operating system : Darwin
 CPU/hardware     : x86_64
 Compiler system  : gfortran
 Compiler command : /usr/local/bin/mpif90
 Compiler flags   : -frepack-arrays -fallow-argument-mismatch -O3 -I/usr/include -I/usr/local/include -ffree-form -ffree-line-length-none

 Input Script  : 

 SVN Root URL  : https:://myroms.org/svn/src
 SVN Revision  : Unversioned directory

 Local Root    : /Users/yuta/COAWST/COAWST_Eco
 Header Dir    : /Users/yuta/COAWST/Projects/Shiraho_reef
 Header file   : shiraho_reef.h
 Analytical Dir: /Users/yuta/COAWST/Projects/Shiraho_reef

 Resolution, Grid 01: 0062x0190x008,  Parallel Nodes:   6,  Tiling: 001x006


 Physical Parameters, Grid: 01
 =============================

     259200  ntimes            Number of timesteps for 3-D equations.
      5.000  dt                Timestep size (s) for 3-D equations.
         20  ndtfast           Number of timesteps for 2-D equations between
                                 each 3D timestep.
          1  ERstr             Starting ensemble/perturbation run number.
          1  ERend             Ending ensemble/perturbation run number.
          0  nrrec             Number of restart records to read from disk.
          T  LcycleRST         Switch to recycle time-records in restart file.
      10000  nRST              Number of timesteps between the writing of data
                                 into restart fields.
          1  ninfo             Number of timesteps between print of information
                                 to standard output.
          T  ldefout           Switch to create a new output NetCDF file(s).
        120  nHIS              Number of timesteps between the writing fields
                                 into history file.
          0  nQCK              Number of timesteps between the writing fields
                                 into quicksave file.
 5.0000E-01  nl_tnu2(01)       NLM Horizontal, harmonic mixing coefficient
                                 (m2/s) for tracer 01: temp
 5.0000E-01  nl_tnu2(02)       NLM Horizontal, harmonic mixing coefficient
                                 (m2/s) for tracer 02: salt
 1.0000E-01  nl_visc2          NLM Horizontal, harmonic mixing coefficient
                                 (m2/s) for momentum.
          F  LuvSponge         Turning OFF sponge on horizontal momentum.
          F  LtracerSponge(01) Turning OFF sponge on tracer 01: temp
          F  LtracerSponge(02) Turning OFF sponge on tracer 02: salt
 5.0000E-06  Akt_bak(01)       Background vertical mixing coefficient (m2/s)
                                 for tracer 01: temp
 5.0000E-06  Akt_bak(02)       Background vertical mixing coefficient (m2/s)
                                 for tracer 02: salt
 5.0000E-05  Akv_bak           Background vertical mixing coefficient (m2/s)
                                 for momentum.
 5.0000E-06  Akk_bak           Background vertical mixing coefficient (m2/s)
                                 for turbulent energy.
 5.0000E-06  Akp_bak           Background vertical mixing coefficient (m2/s)
                                 for turbulent generic statistical field.
      3.000  gls_p             GLS stability exponent.
      1.500  gls_m             GLS turbulent kinetic energy exponent.
     -1.000  gls_n             GLS turbulent length scale exponent.
 7.6000E-06  gls_Kmin          GLS minimum value of turbulent kinetic energy.
 1.0000E-12  gls_Pmin          GLS minimum value of dissipation.
 5.4770E-01  gls_cmu0          GLS stability coefficient.
 1.4400E+00  gls_c1            GLS shear production coefficient.
 1.9200E+00  gls_c2            GLS dissipation coefficient.
-4.0000E-01  gls_c3m           GLS stable buoyancy production coefficient.
 1.0000E+00  gls_c3p           GLS unstable buoyancy production coefficient.
 1.0000E+00  gls_sigk          GLS constant Schmidt number for TKE.
 1.3000E+00  gls_sigp          GLS constant Schmidt number for PSI.
   1400.000  charnok_alpha     Charnok factor for Zos calculation.
      0.500  zos_hsig_alpha    Factor for Zos calculation using Hsig(Awave).
      0.020  sz_alpha          Factor for Wave dissipation surface tke flux .
    100.000  crgban_cw         Factor for Craig/Banner surface tke flux.
      0.500  wec_alpha         WEC factor for roller/breaking energy distribution.
 3.0000E-04  rdrg              Linear bottom drag coefficient (m/s).
 2.5000E-02  rdrg2             Quadratic bottom drag coefficient.
 3.0000E-02  Zob               Bottom roughness (m).
 5.0000E-01  Zos               Surface roughness (m).
 1.0000E+01  blk_ZQ            Height (m) of surface air humidity measurement.
 1.0000E+01  blk_ZT            Height (m) of surface air temperature measurement.
 1.0000E+01  blk_ZW            Height (m) of surface winds measurement.
 1.0000E-01  Dcrit             Minimum depth for wetting and drying (m).
          2  lmd_Jwt           Jerlov water type.
          2  Vtransform        S-coordinate transformation equation.
          3  Vstretching       S-coordinate stretching function.
 1.0000E+00  theta_s           S-coordinate surface control parameter.
 1.0000E+00  theta_b           S-coordinate bottom  control parameter.
     30.000  Tcline            S-coordinate surface/bottom layer width (m) used
                                 in vertical coordinate stretching.
   1025.000  rho0              Mean density (kg/m3) for Boussinesq approximation.
   3884.000  dstart            Time-stamp assigned to model initialization (days).
20000101.00  time_ref          Reference time for units attribute (yyyymmdd.dd)
 1.0000E+02  Tnudg(01)         Nudging/relaxation time scale (days)
                                 for tracer 01: temp
 1.0000E+02  Tnudg(02)         Nudging/relaxation time scale (days)
                                 for tracer 02: salt
 9.0000E+00  Znudg             Nudging/relaxation time scale (days)
                                 for free-surface.
 6.0000E+00  M2nudg            Nudging/relaxation time scale (days)
                                 for 2D momentum.
 1.0000E+02  M3nudg            Nudging/relaxation time scale (days)
                                 for 3D momentum.
 5.0000E+02  obcfac            Factor between passive and active
                                 open boundary conditions.
          F  VolCons(1)        NLM western  edge boundary volume conservation.
          F  VolCons(2)        NLM southern edge boundary volume conservation.
          F  VolCons(3)        NLM eastern  edge boundary volume conservation.
          F  VolCons(4)        NLM northern edge boundary volume conservation.
     29.000  T0                Background potential temperature (C) constant.
     34.450  S0                Background salinity (PSU) constant.
      1.000  gamma2            Slipperiness variable: free-slip (1.0) or 
                                                      no-slip (-1.0).
          F  LuvSrc            Turning OFF momentum point Sources/Sinks.
          F  LwSrc             Turning OFF volume influx point Sources/Sinks.
          F  LtracerSrc(01)    Turning OFF point Sources/Sinks on tracer 01: temp
          F  LtracerSrc(02)    Turning OFF point Sources/Sinks on tracer 02: salt
          F  LsshCLM           Turning OFF processing of SSH climatology.
          F  Lm2CLM            Turning OFF processing of 2D momentum climatology.
          F  Lm3CLM            Turning OFF processing of 3D momentum climatology.
          F  LtracerCLM(01)    Turning OFF processing of climatology tracer 01: temp
          F  LtracerCLM(02)    Turning OFF processing of climatology tracer 02: salt
          F  LnudgeM2CLM       Turning OFF nudging of 2D momentum climatology.
          F  LnudgeM3CLM       Turning OFF nudging of 3D momentum climatology.
          F  LnudgeTCLM(01)    Turning OFF nudging of climatology tracer 01: temp
          F  LnudgeTCLM(02)    Turning OFF nudging of climatology tracer 02: salt

          T  Hout(idFsur)      Write out free-surface.
          T  Hout(idUbar)      Write out 2D U-momentum component.
          T  Hout(idVbar)      Write out 2D V-momentum component.
          T  Hout(idUvel)      Write out 3D U-momentum component.
          T  Hout(idVvel)      Write out 3D V-momentum component.
          T  Hout(idWvel)      Write out W-momentum component.
          T  Hout(idOvel)      Write out omega vertical velocity.
          T  Hout(idTvar)      Write out tracer 01: temp
          T  Hout(idTvar)      Write out tracer 02: salt
          T  Hout(idUbms)      Write out bottom U-momentum stress.
          T  Hout(idVbms)      Write out bottom V-momentum stress.
          T  Hout(idUbrs)      Write out bottom U-current stress.
          T  Hout(idVbrs)      Write out bottom V-current stress.
          T  Hout(idUbws)      Write out wind-induced, bottom U-wave stress.
          T  Hout(idVbws)      Write out wind-induced, bottom V-wave stress.
          T  Hout(idUbcs)      Write out max wind + current, bottom U-wave stress.
          T  Hout(idVbcs)      Write out max wind + current, bottom V-wave stress.
          T  Hout(idUVwc)      Write out max wind + current, bottom UV-wave stress.
          T  Hout(idUbot)      Write out bed wave orbital U-velocity.
          T  Hout(idVbot)      Write out bed wave orbital V-velocity.
          T  Hout(idUbur)      Write out bottom U-momentum above bed.
          T  Hout(idVbvr)      Write out bottom V-momentum above bed.
          T  Hout(idU2rs)      Write out total 2D u-radiation stress.
          T  Hout(idV2rs)      Write out total 2D v-radiation stress.
          T  Hout(idU2Sd)      Write out 2D u-momentum stokes velocity.
          T  Hout(idV2Sd)      Write out 2D v-momentum stokes velocity.
          T  Hout(idU3rs)      Write out total 3D u-radiation stress.
          T  Hout(idV3rs)      Write out total 3D v-radiation stress.
          T  Hout(idU3Sd)      Write out 3D u-momentum stokes velocity.
          T  Hout(idV3Sd)      Write out 3D v-momentum stokes velocity.
          T  Hout(idW3Sd)      Write out 3D omega-momentum stokes velocity.
          T  Hout(idW3St)      Write out 3D w-momentum stokes velocity.
          T  Hout(idWamp)      Write out wave height.
          T  Hout(idWlen)      Write out wavelength.
          T  Hout(idWdir)      Write out wave direction.
          T  Hout(idWptp)      Write out wave surface period.
          T  Hout(idWpbt)      Write out wave bottom period.
          T  Hout(idWorb)      Write out wave bottom orbital velocity.
          T  Hout(idWdif)      Write out wave dissipation due to bottom friction.
          T  Hout(idWdib)      Write out wave dissipation due to breaking.
          T  Hout(idWdiw)      Write out wave dissipation due to white capping.
          T  Hout(idUwav)      Wave-avg surface u-velocity.
          T  Hout(idVwav)      Wave-avg surface v-velocity.
          T  Hout(idVvis)      Write out vertical viscosity: AKv.
          T  Hout(idMtke)      Write out turbulent kinetic energy.
          T  Hout(idMtls)      Write out turbulent generic length-scale.

 Output/Input Files:

             Output Restart File:  ocean_rst_10.nc
             Output History File:  ocean_his_10.nc
        Physical parameters File:  
                 Input Grid File:  ../../Data/Shiraho_reef/shiraho_reef_grid16.3.nc
           Input Forcing File 01:  ../../Data/Shiraho_reef/frc_air100820-1001v3_ref20000101.nc
         Input Boundary File 01:  ../../Data/Shiraho_reef/bry_tide_tr100820-0930v3_ref20000101.nc
         Biology Parameters File:  bio_reef_ecosys.in

 Tile partition information for Grid 01:  0062x0190x0008  tiling: 001x006

     tile     Istr     Iend     Jstr     Jend     Npts

 Number of tracers:           26
        0        1       62        1       31    15376
        1        1       62       32       63    15872
        2        1       62       64       95    15872
        3        1       62       96      127    15872
        4        1       62      128      159    15872
        5        1       62      160      190    15376

 Tile minimum and maximum fractional coordinates for Grid 01:
   (interior points only)

     tile     Xmin     Xmax     Ymin     Ymax     grid

        0     0.50    62.50     0.50    31.50  RHO-points
        1     0.50    62.50    31.50    63.50  RHO-points
        2     0.50    62.50    63.50    95.50  RHO-points
        3     0.50    62.50    95.50   127.50  RHO-points
        4     0.50    62.50   127.50   159.50  RHO-points
        5     0.50    62.50   159.50   190.50  RHO-points

        0     1.00    62.00     0.50    31.50    U-points
        1     1.00    62.00    31.50    63.50    U-points
        2     1.00    62.00    63.50    95.50    U-points
        3     1.00    62.00    95.50   127.50    U-points
        4     1.00    62.00   127.50   159.50    U-points
        5     1.00    62.00   159.50   190.50    U-points

        0     0.50    62.50     1.00    31.50    V-points
        1     0.50    62.50    31.50    63.50    V-points
        2     0.50    62.50    63.50    95.50    V-points
        3     0.50    62.50    95.50   127.50    V-points
        4     0.50    62.50   127.50   159.50    V-points
        5     0.50    62.50   159.50   190.00    V-points

 Maximum halo size in XI and ETA directions:

               HaloSizeI(1) =     146
               HaloSizeJ(1) =      88
                TileSide(1) =      67
                TileSize(1) =    2546



 Reef Ecosys Model Parameters, Grid: 01
 =================================

         10  CrlIter         Number of iterations for nonlinear convergence.
 1.8200E+00  PARfrac         Fraction of shortwave radiation that is
                               photosynthetically active (nondimensional).
 4.0000E+02  pCO2air         CO2 partial pressure in air (ppm by volume).
 2.2320E+03  TAlk0           Total alkalinity  (umol/kg).
 1.9150E+03  TIC_0           Total dissolved inorganic carbon (umol/kg).
 2.0000E+02  Oxyg0           Dissolved oxygen (umol/L).
 5.0000E+00  DOC_0: 01       Dissolved organic carbon (umolC/L).
 5.0000E+01  DOC_0: 02       Dissolved organic carbon (umolC/L).
 1.0000E+00  POC_0: 01       Particulate organic carbon (umolC/L).
 0.0000E+00  POC_0: 02       Particulate organic carbon (umolC/L).
 5.0000E-01  Phyt_0: 01      Phytoplankton (umolC/L).
 5.0000E-01  Phyt_0: 02      Phytoplankton (umolC/L).
 5.0000E-01  Phyt_0: 03      Phytoplankton (umolC/L).
 1.0000E-01  Zoop_0: 01      Zooplankton (umolC/L).
 1.0000E-01  NO3_0           NO3 (umol/L).
 2.6000E-01  NH4_0           NH4 (umol/L).
 4.0000E-02  PO4_0           PO4 (umol/L).
 1.0000E+00  DON_0: 01       DON (umolN/L).
 1.0000E+01  DON_0: 02       DON (umolN/L).
 6.0000E-01  PON_0: 01       PON (umolN/L).
 0.0000E+00  PON_0: 02       PON (umolN/L).
 6.0000E-02  DOP_0: 01       DOP (umolP/L).
 6.0000E-01  DOP_0: 02       DOP (umolP/L).
 4.0000E-02  POP_0: 01       POP (umolP/L).
 0.0000E+00  POP_0: 02       POP (umolP/L).
         19  Nsed            Number of biological sediment layers.
 1.0000E-01  SedEcoLayerDepthDepth (cm) from surface at bottom of each biological sediment layer.
 2.0000E-01  SedEcoLayerDepthDepth (cm) from surface at bottom of each biological sediment layer.
 3.0000E-01  SedEcoLayerDepthDepth (cm) from surface at bottom of each biological sediment layer.
 4.0000E-01  SedEcoLayerDepthDepth (cm) from surface at bottom of each biological sediment layer.
 5.0000E-01  SedEcoLayerDepthDepth (cm) from surface at bottom of each biological sediment layer.
 6.0000E-01  SedEcoLayerDepthDepth (cm) from surface at bottom of each biological sediment layer.
 7.0000E-01  SedEcoLayerDepthDepth (cm) from surface at bottom of each biological sediment layer.
 8.0000E-01  SedEcoLayerDepthDepth (cm) from surface at bottom of each biological sediment layer.
 9.0000E-01  SedEcoLayerDepthDepth (cm) from surface at bottom of each biological sediment layer.
 1.0000E+00  SedEcoLayerDepthDepth (cm) from surface at bottom of each biological sediment layer.
 2.0000E+00  SedEcoLayerDepthDepth (cm) from surface at bottom of each biological sediment layer.
 3.0000E+00  SedEcoLayerDepthDepth (cm) from surface at bottom of each biological sediment layer.
 4.0000E+00  SedEcoLayerDepthDepth (cm) from surface at bottom of each biological sediment layer.
 5.0000E+00  SedEcoLayerDepthDepth (cm) from surface at bottom of each biological sediment layer.
 6.0000E+00  SedEcoLayerDepthDepth (cm) from surface at bottom of each biological sediment layer.
 7.0000E+00  SedEcoLayerDepthDepth (cm) from surface at bottom of each biological sediment layer.
 8.0000E+00  SedEcoLayerDepthDepth (cm) from surface at bottom of each biological sediment layer.
 9.0000E+00  SedEcoLayerDepthDepth (cm) from surface at bottom of each biological sediment layer.
 1.0000E+01  SedEcoLayerDepthDepth (cm) from surface at bottom of each biological sediment layer.
 0.0000E+00  nl_tnu2(04)     NLM Horizontal, harmonic mixing coefficient
                               (m2/s) for tracer 04: TIC
 0.0000E+00  nl_tnu2(05)     NLM Horizontal, harmonic mixing coefficient
                               (m2/s) for tracer 05: alkalinity
 0.0000E+00  nl_tnu2(06)     NLM Horizontal, harmonic mixing coefficient
                               (m2/s) for tracer 06: oxygen
 0.0000E+00  nl_tnu2(07)     NLM Horizontal, harmonic mixing coefficient
                               (m2/s) for tracer 07: DOC_01
 0.0000E+00  nl_tnu2(08)     NLM Horizontal, harmonic mixing coefficient
                               (m2/s) for tracer 08: DOC_02
 0.0000E+00  nl_tnu2(09)     NLM Horizontal, harmonic mixing coefficient
                               (m2/s) for tracer 09: POC_01
 0.0000E+00  nl_tnu2(10)     NLM Horizontal, harmonic mixing coefficient
                               (m2/s) for tracer 10: POC_02
 0.0000E+00  nl_tnu2(11)     NLM Horizontal, harmonic mixing coefficient
                               (m2/s) for tracer 11: phytoplankton_01
 0.0000E+00  nl_tnu2(12)     NLM Horizontal, harmonic mixing coefficient
                               (m2/s) for tracer 12: phytoplankton_02
 0.0000E+00  nl_tnu2(13)     NLM Horizontal, harmonic mixing coefficient
                               (m2/s) for tracer 13: phytoplankton_03
 0.0000E+00  nl_tnu2(14)     NLM Horizontal, harmonic mixing coefficient
                               (m2/s) for tracer 14: zooplankton_01
 0.0000E+00  nl_tnu2(15)     NLM Horizontal, harmonic mixing coefficient
                               (m2/s) for tracer 15: PIC_01
 0.0000E+00  nl_tnu2(16)     NLM Horizontal, harmonic mixing coefficient
                               (m2/s) for tracer 16: NO3
 0.0000E+00  nl_tnu2(17)     NLM Horizontal, harmonic mixing coefficient
                               (m2/s) for tracer 17: NH4
 0.0000E+00  nl_tnu2(18)     NLM Horizontal, harmonic mixing coefficient
                               (m2/s) for tracer 18: PO4
 0.0000E+00  nl_tnu2(19)     NLM Horizontal, harmonic mixing coefficient
                               (m2/s) for tracer 19: DON_01
 0.0000E+00  nl_tnu2(20)     NLM Horizontal, harmonic mixing coefficient
                               (m2/s) for tracer 20: DON_02
 0.0000E+00  nl_tnu2(21)     NLM Horizontal, harmonic mixing coefficient
                               (m2/s) for tracer 21: PON_01
 0.0000E+00  nl_tnu2(22)     NLM Horizontal, harmonic mixing coefficient
                               (m2/s) for tracer 22: PON_02
 0.0000E+00  nl_tnu2(23)     NLM Horizontal, harmonic mixing coefficient
                               (m2/s) for tracer 23: DOP_01
 0.0000E+00  nl_tnu2(24)     NLM Horizontal, harmonic mixing coefficient
                               (m2/s) for tracer 24: DOP_02
 0.0000E+00  nl_tnu2(25)     NLM Horizontal, harmonic mixing coefficient
                               (m2/s) for tracer 25: POP_01
 0.0000E+00  nl_tnu2(26)     NLM Horizontal, harmonic mixing coefficient
                               (m2/s) for tracer 26: POP_02
 1.0000E-06  Akt_bak(04)     Background vertical mixing coefficient (m2/s)
                               for tracer 04: TIC
 1.0000E-06  Akt_bak(05)     Background vertical mixing coefficient (m2/s)
                               for tracer 05: alkalinity
 1.0000E-06  Akt_bak(06)     Background vertical mixing coefficient (m2/s)
                               for tracer 06: oxygen
 1.0000E-06  Akt_bak(07)     Background vertical mixing coefficient (m2/s)
                               for tracer 07: DOC_01
 1.0000E-06  Akt_bak(08)     Background vertical mixing coefficient (m2/s)
                               for tracer 08: DOC_02
 1.0000E-06  Akt_bak(09)     Background vertical mixing coefficient (m2/s)
                               for tracer 09: POC_01
 1.0000E-06  Akt_bak(10)     Background vertical mixing coefficient (m2/s)
                               for tracer 10: POC_02
 1.0000E-06  Akt_bak(11)     Background vertical mixing coefficient (m2/s)
                               for tracer 11: phytoplankton_01
 1.0000E-06  Akt_bak(12)     Background vertical mixing coefficient (m2/s)
                               for tracer 12: phytoplankton_02
 1.0000E-06  Akt_bak(13)     Background vertical mixing coefficient (m2/s)
                               for tracer 13: phytoplankton_03
 1.0000E-06  Akt_bak(14)     Background vertical mixing coefficient (m2/s)
                               for tracer 14: zooplankton_01
 1.0000E-06  Akt_bak(15)     Background vertical mixing coefficient (m2/s)
                               for tracer 15: PIC_01
 1.0000E-06  Akt_bak(16)     Background vertical mixing coefficient (m2/s)
                               for tracer 16: NO3
 1.0000E-06  Akt_bak(17)     Background vertical mixing coefficient (m2/s)
                               for tracer 17: NH4
 1.0000E-06  Akt_bak(18)     Background vertical mixing coefficient (m2/s)
                               for tracer 18: PO4
 1.0000E-06  Akt_bak(19)     Background vertical mixing coefficient (m2/s)
                               for tracer 19: DON_01
 1.0000E-06  Akt_bak(20)     Background vertical mixing coefficient (m2/s)
                               for tracer 20: DON_02
 1.0000E-06  Akt_bak(21)     Background vertical mixing coefficient (m2/s)
                               for tracer 21: PON_01
 1.0000E-06  Akt_bak(22)     Background vertical mixing coefficient (m2/s)
                               for tracer 22: PON_02
 1.0000E-06  Akt_bak(23)     Background vertical mixing coefficient (m2/s)
                               for tracer 23: DOP_01
 1.0000E-06  Akt_bak(24)     Background vertical mixing coefficient (m2/s)
                               for tracer 24: DOP_02
 1.0000E-06  Akt_bak(25)     Background vertical mixing coefficient (m2/s)
                               for tracer 25: POP_01
 1.0000E-06  Akt_bak(26)     Background vertical mixing coefficient (m2/s)
                               for tracer 26: POP_02
 1.8000E+02  Tnudg(04)       Nudging/relaxation time scale (days)
                               for tracer 04: TIC
 1.8000E+02  Tnudg(05)       Nudging/relaxation time scale (days)
                               for tracer 05: alkalinity
 1.8000E+02  Tnudg(06)       Nudging/relaxation time scale (days)
                               for tracer 06: oxygen
 1.8000E+02  Tnudg(07)       Nudging/relaxation time scale (days)
                               for tracer 07: DOC_01
 1.8000E+02  Tnudg(08)       Nudging/relaxation time scale (days)
                               for tracer 08: DOC_02
 1.8000E+02  Tnudg(09)       Nudging/relaxation time scale (days)
                               for tracer 09: POC_01
 1.8000E+02  Tnudg(10)       Nudging/relaxation time scale (days)
                               for tracer 10: POC_02
 1.8000E+02  Tnudg(11)       Nudging/relaxation time scale (days)
                               for tracer 11: phytoplankton_01
 1.8000E+02  Tnudg(12)       Nudging/relaxation time scale (days)
                               for tracer 12: phytoplankton_02
 1.8000E+02  Tnudg(13)       Nudging/relaxation time scale (days)
                               for tracer 13: phytoplankton_03
 1.8000E+02  Tnudg(14)       Nudging/relaxation time scale (days)
                               for tracer 14: zooplankton_01
 1.8000E+02  Tnudg(15)       Nudging/relaxation time scale (days)
                               for tracer 15: PIC_01
 1.8000E+02  Tnudg(16)       Nudging/relaxation time scale (days)
                               for tracer 16: NO3
 1.8000E+02  Tnudg(17)       Nudging/relaxation time scale (days)
                               for tracer 17: NH4
 1.8000E+02  Tnudg(18)       Nudging/relaxation time scale (days)
                               for tracer 18: PO4
 1.8000E+02  Tnudg(19)       Nudging/relaxation time scale (days)
                               for tracer 19: DON_01
 1.8000E+02  Tnudg(20)       Nudging/relaxation time scale (days)
                               for tracer 20: DON_02
 1.8000E+02  Tnudg(21)       Nudging/relaxation time scale (days)
                               for tracer 21: PON_01
 1.8000E+02  Tnudg(22)       Nudging/relaxation time scale (days)
                               for tracer 22: PON_02
 1.8000E+02  Tnudg(23)       Nudging/relaxation time scale (days)
                               for tracer 23: DOP_01
 1.8000E+02  Tnudg(24)       Nudging/relaxation time scale (days)
                               for tracer 24: DOP_02
 1.8000E+02  Tnudg(25)       Nudging/relaxation time scale (days)
                               for tracer 25: POP_01
 1.8000E+02  Tnudg(26)       Nudging/relaxation time scale (days)
                               for tracer 26: POP_02
          T  Hout(idTvar)    Write out tracer 04: TIC
          T  Hout(idTvar)    Write out tracer 05: alkalinity
          T  Hout(idTvar)    Write out tracer 06: oxygen
          T  Hout(idTvar)    Write out tracer 07: DOC_01
          T  Hout(idTvar)    Write out tracer 08: DOC_02
          T  Hout(idTvar)    Write out tracer 09: POC_01
          T  Hout(idTvar)    Write out tracer 10: POC_02
          T  Hout(idTvar)    Write out tracer 11: phytoplankton_01
          T  Hout(idTvar)    Write out tracer 12: phytoplankton_02
          T  Hout(idTvar)    Write out tracer 13: phytoplankton_03
          T  Hout(idTvar)    Write out tracer 14: zooplankton_01
          T  Hout(idTvar)    Write out tracer 15: PIC_01
          T  Hout(idTvar)    Write out tracer 16: NO3
          T  Hout(idTvar)    Write out tracer 17: NH4
          T  Hout(idTvar)    Write out tracer 18: PO4
          T  Hout(idTvar)    Write out tracer 19: DON_01
          T  Hout(idTvar)    Write out tracer 20: DON_02
          T  Hout(idTvar)    Write out tracer 21: PON_01
          T  Hout(idTvar)    Write out tracer 22: PON_02
          T  Hout(idTvar)    Write out tracer 23: DOP_01
          T  Hout(idTvar)    Write out tracer 24: DOP_02
          T  Hout(idTvar)    Write out tracer 25: POP_01
          T  Hout(idTvar)    Write out tracer 26: POP_02
          T  Hout(iHbio2)    Write out pH
          T  Hout(iHbio2)    Write out Omega_arg
          T  Hout(iHbio2)    Write out CO2_airsea
          T  Hout(iHbio2)    Write out pCO2
          T  Hout(iHbio2)    Write out O2_airsea
          T  Hout(iHbio2)    Write out PARbot
          T  Hout(iHbio2)    Write out Tau_ave
          T  Hout(iHbio2)    Write out coral1_Pg
          T  Hout(iHbio2)    Write out coral1_R
          T  Hout(iHbio2)    Write out coral1_Pn
          T  Hout(iHbio2)    Write out coral1_G
          T  Hout(iHbio2)    Write out coral1_orgC
          T  Hout(iHbio2)    Write out coral2_Pg
          T  Hout(iHbio2)    Write out coral2_R
          T  Hout(iHbio2)    Write out coral2_Pn
          T  Hout(iHbio2)    Write out coral2_G
          T  Hout(iHbio2)    Write out coral2_orgC
          T  Hout(iHbio2)    Write out coral1_densZoox
          T  Hout(iHbio2)    Write out coral2_densZoox
          T  Hout(iHbio2)    Write out coral1_Zoox_chl
          T  Hout(iHbio2)    Write out coral2_Zoox_chl
          T  Hout(iHbio2)    Write out coral1_mort
          T  Hout(iHbio2)    Write out coral1_growth
          T  Hout(iHbio2)    Write out coral2_mort
          T  Hout(iHbio2)    Write out coral2_growth
          T  Hout(iHbio2)    Write out seagrass_Pg
          T  Hout(iHbio2)    Write out seagrass_R
          T  Hout(iHbio2)    Write out seagrass_Pn
          T  Hout(iHbio2)    Write out algal_Pg
          T  Hout(iHbio2)    Write out algal_R
          T  Hout(iHbio2)    Write out algal_Pn
          T  Hout(iHbiosed3) Write out sediment_poro
          T  Hout(iHbiosed3) Write out sediment_Tmp
          T  Hout(iHbiosed3) Write out sediment_Sal
          T  Hout(iHbiosed3) Write out sediment_TA
          T  Hout(iHbiosed3) Write out sediment_O2
          T  Hout(iHbiosed3) Write out sediment_CO2
          T  Hout(iHbiosed3) Write out sediment_N2
          T  Hout(iHbiosed3) Write out sediment_DOCf
          T  Hout(iHbiosed3) Write out sediment_DOCs
          T  Hout(iHbiosed3) Write out sediment_POCf
          T  Hout(iHbiosed3) Write out sediment_POCs
          T  Hout(iHbiosed3) Write out sediment_POCn
          T  Hout(iHbiosed3) Write out sediment_NO3
          T  Hout(iHbiosed3) Write out sediment_NH4
          T  Hout(iHbiosed3) Write out sediment_PO4
          T  Hout(iHbiosed3) Write out sediment_DONf
          T  Hout(iHbiosed3) Write out sediment_DONs
          T  Hout(iHbiosed3) Write out sediment_PONf
          T  Hout(iHbiosed3) Write out sediment_PONs
          T  Hout(iHbiosed3) Write out sediment_PONn
          T  Hout(iHbiosed3) Write out sediment_DOPf
          T  Hout(iHbiosed3) Write out sediment_DOPs
          T  Hout(iHbiosed3) Write out sediment_POPf
          T  Hout(iHbiosed3) Write out sediment_POPs
          T  Hout(iHbiosed3) Write out sediment_POPn
          T  Hout(iHbiosed3) Write out sediment_Mn2
          T  Hout(iHbiosed3) Write out sediment_MnO2
          T  Hout(iHbiosed3) Write out sediment_Fe2
          T  Hout(iHbiosed3) Write out sediment_FeS
          T  Hout(iHbiosed3) Write out sediment_FeS2
          T  Hout(iHbiosed3) Write out sediment_FeOOH
          T  Hout(iHbiosed3) Write out sediment_FeOOH_PO4
          T  Hout(iHbiosed3) Write out sediment_H2S
          T  Hout(iHbiosed3) Write out sediment_SO4
          T  Hout(iHbiosed3) Write out sediment_S0


 Sediment Parameters, Grid: 01
 =============================


 Size     Sd50        Csed        Srho        Wsed        Erate       poros
 Class    (mm)       (kg/m3)     (kg/m3)     (mm/s)     (kg/m2/s)    (nondim)

   1    5.0000E-03  0.0000E+00  2.6700E+03  2.3300E-05  0.0000E+00  0.0000E+00

         tau_ce      tau_cd      nl_tnu2     nl_tnu4     Akt_bak      Tnudg
         (N/m2)      (N/m2)      (m2/s)      (m4/s)       (m2/s)      (day)

   1    1.0000E+02  1.0000E-03  0.0000E+00  0.0000E+00  5.0000E-06  1.0000E+02

         morph_fac
         (nondim)

   1    1.0000E+00

 New bed layer formed when deposition exceeds  0.10000E-01 (m).
 Two first layers are combined when 2nd layer smaller than  0.00000E+00 (m).
 Rate coefficient for bed load transport =  0.15000E+00

          F  LtracerSponge(03Turning OFF sponge on tracer 03: mud_01
          F  LtracerSrc(03)  Turning OFF point sources/Sink on tracer 03: mud_01
          F  LtracerCLM(03)  Turning OFF processing of climatology tracer 03: mud_01
          F  LnudgeTCLM(03)  Turning OFF nudging of climatology tracer 03: mud_01

          T  Hout(idTvar)   Write out sediment01: mud_01
          T  Hout(idfrac)   Write out bed fraction, sediment 01: mudfrac_01
          T  Hout(idfrac)   Write out mass, sediment 01: mudmass_01
          T  Hout(idSbed)   Write out BED property 01: bed_thickness
          T  Hout(idSbed)   Write out BED property 02: bed_age
          T  Hout(idSbed)   Write out BED property 03: bed_porosity
          T  Hout(idSbed)   Write out BED property 04: bed_biodiff

 Lateral Boundary Conditions: NLM
 ============================

 Variable               Grid  West Edge    South Edge   East Edge    North Edge
 ---------              ----  ----------   ----------   ----------   ----------

 zeta                     1   Closed       Closed       Chapman Imp  Closed

 ubar                     1   Closed       Closed       Flather      Closed

 vbar                     1   Closed       Closed       Radiation    Closed

 u                        1   Closed       Closed       Radiation    Closed

 v                        1   Closed       Closed       Radiation    Closed

 temp                     1   Closed       Closed       Rad + Nud    Closed

 salt                     1   Closed       Closed       Rad + Nud    Closed

 mud_01                   1   Closed       Radiation    Rad + Nud    Radiation

 TIC                      1   Closed       Closed       Rad + Nud    Closed

 alkalinity               1   Closed       Closed       Rad + Nud    Closed

 oxygen                   1   Closed       Closed       Rad + Nud    Closed

 DOC_01                   1   Closed       Closed       Rad + Nud    Closed

 DOC_02                   1   Closed       Closed       Rad + Nud    Closed

 POC_01                   1   Closed       Closed       Rad + Nud    Closed

 POC_02                   1   Closed       Closed       Rad + Nud    Closed

 phytoplankton_01         1   Closed       Closed       Rad + Nud    Closed

 phytoplankton_02         1   Closed       Closed       Rad + Nud    Closed

 phytoplankton_03         1   Closed       Closed       Rad + Nud    Closed

 zooplankton_01           1   Closed       Closed       Rad + Nud    Closed

 PIC_01                   1   Closed       Closed       Rad + Nud    Closed

 NO3                      1   Closed       Closed       Rad + Nud    Closed

 NH4                      1   Closed       Closed       Rad + Nud    Closed

 PO4                      1   Closed       Closed       Rad + Nud    Closed

 DON_01                   1   Closed       Closed       Rad + Nud    Closed

 DON_02                   1   Closed       Closed       Rad + Nud    Closed

 PON_01                   1   Closed       Closed       Rad + Nud    Closed

 PON_02                   1   Closed       Closed       Rad + Nud    Closed

 DOP_01                   1   Closed       Closed       Rad + Nud    Closed

 DOP_02                   1   Closed       Closed       Rad + Nud    Closed

 POP_01                   1   Closed       Closed       Rad + Nud    Closed

 POP_02                   1   Closed       Closed       Rad + Nud    Closed

 tke                      1   Closed       Closed       Closed       Closed

 ubar_stokes              1   Closed       Closed       Gradient     Closed

 vbar_stokes              1   Closed       Closed       Gradient     Closed

 u_stokes                 1   Closed       Closed       Gradient     Closed

 v_stokes                 1   Closed       Closed       Gradient     Closed

 Activated C-preprocessing Options:

 SHIRAHO_REEF        Shiraho Reef Case
 ANA_BIOLOGY         Analytical biology initial conditions.
 ANA_BPFLUX          Analytical bottom passive tracers fluxes.
 ANA_BSFLUX          Analytical kinematic bottom salinity flux.
 ANA_BTFLUX          Analytical kinematic bottom temperature flux.
 ANA_INITIAL         Analytical initial conditions.
 ANA_M2OBC           Analytical 2D momentum boundary conditions.
 ANA_SEDIMENT        Analytical sediment initial conditions.
 ANA_SPFLUX          Analytical surface passive tracer fluxes.
 ANA_TOBC            Analytical tracers boundary conditions.
 ASSUMED_SHAPE       Using assumed-shape arrays.
 ATM_PRESS           Impose atmospheric pressure onto sea surface.
 !BOUNDARY_ALLGATHER Using mpi_allreduce in mp_boundary routine.
 BULK_FLUXES         Surface bulk fluxes parameterization.
 !COLLECT_ALL...     Using mpi_isend/mpi_recv in mp_collect routine.
 DIFF_3DCOEF         Horizontal, time-dependent 3D diffusion coefficient.
 DJ_GRADPS           Parabolic Splines density Jacobian (Shchepetkin, 2002).
 DOUBLE_PRECISION    Double precision arithmetic.
 EMINUSP             Compute Salt Flux using E-P.
 GLS_MIXING          Generic Length-Scale turbulence closure.
 KANTHA_CLAYSON      Kantha and Clayson stability function formulation.
 LONGWAVE            Compute net longwave radiation internally.
 MASKING             Land/Sea masking.
 MCT_LIB             Using Model Coupling Toolkit library.
 MIX_S_TS            Mixing of tracers along constant S-surfaces.
 MIX_S_UV            Mixing of momentum along constant S-surfaces.
 MPI                 MPI distributed-memory configuration.
 WEC_MELLOR          Mellore wave current interaction terms.
 WDISS_WAVEMOD       Wave energy dissipation acquired from coupled wave model.
 NONLINEAR           Nonlinear Model.
 NONLIN_EOS          Nonlinear Equation of State for seawater.
 NO_LBC_ATT          Not checking NetCDF global attribute NLM_LBC during restart.
 POWER_LAW           Power-law shape time-averaging barotropic filter.
 PROFILE             Time profiling activated .
 K_GSCHEME           Third-order upstream advection of TKE fields.
 RADIATION_2D        Use tangential phase speed in radiation conditions.
 REDUCE_ALLGATHER    Using mpi_allgather in mp_reduce routine.
 !RST_SINGLE         Double precision fields in restart NetCDF file.
 SALINITY            Using salinity.
 SEDIMENT            Cohesive and noncohesive sediments.
 SUSPLOAD            Activate suspended sediment transport.
 NONCOHESIVE_BED1    Activate non-cohesive (original) sediment bed.
 SOLAR_SOURCE        Solar Radiation Source Term.
 SOLVE3D             Solving 3D Primitive Equations.
 SSW_BBL             Styles and Glenn Bottom Boundary Layer - modified.
 SSW_LOGINT          Bottom currents logarithmic interpolation.
 SWAN_COUPLING       SWAN model coupling.
 TKE_WAVEDISS        Wave breaking surface tke flux based on wave amplitude.
 TS_U3HADVECTION     Third-order upstream horizontal advection of tracers.
 TS_C4VADVECTION     Fourth-order centered vertical advection of tracers.
 TS_DIF2             Harmonic mixing of tracers.
 TS_SMAGORINSKY      Smagorinksy-like time-dependent diffusion coefficients.
 UV_ADV              Advection of momentum.
 UV_COR              Coriolis term.
 UV_U3HADVECTION     Third-order upstream horizontal advection of 3D momentum.
 UV_C4VADVECTION     Fourth-order centered vertical advection of momentum.
 UV_KIRBY            Compute uwave and vwave Kirby avg velocities.
 UV_VIS2             Harmonic mixing of momentum.
 UV_SMAGORINSKY      Smagorinksy-like time-dependent viscosity coefficients.
 VAR_RHO_2D          Variable density barotropic mode.
 VISC_3DCOEF         Horizontal, time-dependent 3D viscosity coefficient.
 WAVES_OCEAN         Two-way wave-ocean models coupling.
 WET_DRY             Wetting and drying activated.
 ZOS_HSIG            Wave amplitude used for Zos calculation.

 CHECKADJ - use caution when activating: TS_SMAGORINSKY
            REASON: stability problems, WARNING.

 CHECKADJ - use caution when activating: UV_SMAGORINSKY
            REASON: stability problems, WARNING.

 Process Information:

 Node #  0 (pid=   12058) is active.
 Node #  1 (pid=   12059) is active.
 Node #  3 (pid=   12061) is active.
 Node #  4 (pid=   12062) is active.
 Node #  2 (pid=   12060) is active.
 Node #  5 (pid=   12063) is active.

 INITIAL: Configuring and initializing forward nonlinear model ...
 *******

    GET_GRID    - bathymetry at RHO-points: h
                   (Grid = 01, File: ../../Data/Shiraho_reef/shiraho_reef_grid16.3.nc)
                   (Min = -1.01000000E+01 Max =  3.38000000E+01)
    GET_GRID    - Coriolis parameter at RHO-points: f
                   (Grid = 01, File: ../../Data/Shiraho_reef/shiraho_reef_grid16.3.nc)
                   (Min =  6.01499049E-05 Max =  6.03487662E-05)
    GET_GRID    - reciprocal XI-grid spacing: pm
                   (Grid = 01, File: ../../Data/Shiraho_reef/shiraho_reef_grid16.3.nc)
                   (Min =  2.00000000E-02 Max =  2.00000000E-02)
    GET_GRID    - reciprocal ETA-grid spacing: pn
                   (Grid = 01, File: ../../Data/Shiraho_reef/shiraho_reef_grid16.3.nc)
                   (Min =  2.00000000E-02 Max =  2.00000000E-02)
    GET_GRID    - x-location of RHO-points: x-rho
                   (Grid = 01, File: ../../Data/Shiraho_reef/shiraho_reef_grid16.3.nc)
                   (Min =  6.26550000E+05 Max =  6.29700000E+05)
    GET_GRID    - y-location of RHO-points: y_rho
                   (Grid = 01, File: ../../Data/Shiraho_reef/shiraho_reef_grid16.3.nc)
                   (Min =  2.69421500E+06 Max =  2.70376500E+06)
    GET_GRID    - x-location of PSI-points: x_psi
                   (Grid = 01, File: ../../Data/Shiraho_reef/shiraho_reef_grid16.3.nc)
                   (Min =  6.26550000E+05 Max =  6.29650000E+05)
    GET_GRID    - y-location of PSI-points: y-psi
                   (Grid = 01, File: ../../Data/Shiraho_reef/shiraho_reef_grid16.3.nc)
                   (Min =  2.69421500E+06 Max =  2.70371500E+06)
    GET_GRID    - x-location of U-points: x_u
                   (Grid = 01, File: ../../Data/Shiraho_reef/shiraho_reef_grid16.3.nc)
                   (Min =  6.26575000E+05 Max =  6.29675000E+05)
    GET_GRID    - y-location of U-points: y_u
                   (Grid = 01, File: ../../Data/Shiraho_reef/shiraho_reef_grid16.3.nc)
                   (Min =  2.69421500E+06 Max =  2.70376500E+06)
    GET_GRID    - x-location of V-points: x_v
                   (Grid = 01, File: ../../Data/Shiraho_reef/shiraho_reef_grid16.3.nc)
                   (Min =  6.26550000E+05 Max =  6.29700000E+05)
    GET_GRID    - y-location of V-points: y_v
                   (Grid = 01, File: ../../Data/Shiraho_reef/shiraho_reef_grid16.3.nc)
                   (Min =  2.69421500E+06 Max =  2.70371500E+06)
    GET_GRID    - mask on RHO-points: mask_rho
                   (Grid = 01, File: ../../Data/Shiraho_reef/shiraho_reef_grid16.3.nc)
                   (Min =  0.00000000E+00 Max =  1.00000000E+00)
    GET_GRID    - mask on U-points: mask_u
                   (Grid = 01, File: ../../Data/Shiraho_reef/shiraho_reef_grid16.3.nc)
                   (Min =  0.00000000E+00 Max =  1.00000000E+00)
    GET_GRID    - mask on V-points: mask_v
                   (Grid = 01, File: ../../Data/Shiraho_reef/shiraho_reef_grid16.3.nc)
                   (Min =  0.00000000E+00 Max =  1.00000000E+00)
    GET_GRID    - mask on PSI-points: mask_psi
                   (Grid = 01, File: ../../Data/Shiraho_reef/shiraho_reef_grid16.3.nc)
                   (Min =  0.00000000E+00 Max =  1.00000000E+00)
    GET_GRID    - angle between XI-axis and EAST: angler
                   (Grid = 01, File: ../../Data/Shiraho_reef/shiraho_reef_grid16.3.nc)
                   (Min =  0.00000000E+00 Max =  0.00000000E+00)

 Vertical S-coordinate System, Grid 01:

 level   S-coord     Cs-curve   Z   at hmin       at hc    half way     at hmax

     8   0.0000000   0.0000000       -0.000       0.000       0.000       0.000
     7  -0.1250000  -0.0422911        1.686      -2.509      -1.204      -2.744
     6  -0.2500000  -0.1500034        3.038      -6.000      -2.627      -6.659
     5  -0.3750000  -0.3098840        4.121     -10.273      -4.225     -11.509
     4  -0.5000000  -0.5000000        5.050     -15.000      -5.925     -16.900
     3  -0.6250000  -0.6901160        5.979     -19.727      -7.625     -22.291
     2  -0.7500000  -0.8499966        7.062     -24.000      -9.223     -27.141
     1  -0.8750000  -0.9577089        8.414     -27.491     -10.646     -31.056
     0  -1.0000000  -1.0000000       10.100     -30.000     -11.850     -33.800

 Time Splitting Weights for Grid 01:    ndtfast =  20    nfast =  29
 ==================================

    Primary            Secondary            Accumulated to Current Step

  1-0.0009651193358779 0.0500000000000000-0.0009651193358779 0.0500000000000000
  2-0.0013488780126037 0.0500482559667939-0.0023139973484816 0.1000482559667939
  3-0.0011514592651645 0.0501156998674241-0.0034654566136460 0.1501639558342179
  4-0.0003735756740661 0.0501732728306823-0.0038390322877122 0.2003372286649002
  5 0.0009829200513762 0.0501919516143856-0.0028561122363360 0.2505291802792858
  6 0.0029141799764308 0.0501428056118168 0.0000580677400948 0.3006719858911026
  7 0.0054132615310267 0.0499970966129952 0.0054713292711215 0.3506690825040978
  8 0.0084687837865132 0.0497264335364439 0.0139401130576347 0.4003955160405417
  9 0.0120633394191050 0.0493029943471183 0.0260034524767397 0.4496985103876600
 10 0.0161716623600090 0.0486998273761630 0.0421751148367486 0.4983983377638230
 11 0.0207585511322367 0.0478912442581626 0.0629336659689853 0.5462895820219856
 12 0.0257765478740990 0.0468533167015507 0.0887102138430843 0.5931428987235363
 13 0.0311633730493853 0.0455644893078458 0.1198735868924696 0.6387073880313821
 14 0.0368391158442262 0.0440063206553765 0.1567127027366958 0.6827137086867585
 15 0.0427031802506397 0.0421643648631652 0.1994158829873354 0.7248780735499237
 16 0.0486309868367616 0.0400292058506332 0.2480468698240970 0.7649072794005569
 17 0.0544704302037591 0.0375976565087951 0.3025173000278562 0.8025049359093520
 18 0.0600380921294285 0.0348741349986072 0.3625553921572847 0.8373790709079592
 19 0.0651152103984763 0.0318722303921358 0.4276706025557610 0.8692513013000949
 20 0.0694434033194839 0.0286164698722119 0.4971140058752449 0.8978677711723068
 21 0.0727201499285569 0.0251442997062377 0.5698341558038018 0.9230120708785445
 22 0.0745940258796570 0.0215082922098099 0.6444281816834588 0.9445203630883544
 23 0.0746596950216180 0.0177785909158270 0.7190878767050768 0.9622989540041814
 24 0.0724526566618460 0.0140456061647461 0.7915405333669228 0.9763445601689276
 25 0.0674437485167025 0.0104229733316538 0.8589842818836253 0.9867675335005814
 26 0.0590334053485720 0.0070507859058187 0.9180176872321973 0.9938183194064002
 27 0.0465456732896125 0.0040991156383901 0.9645633605218099 0.9979174350447904
 28 0.0292219798521905 0.0017718319739095 0.9937853403740005 0.9996892670186999
 29 0.0062146596259994 0.0003107329813000 0.9999999999999999 0.9999999999999999

 ndtfast, nfast =   20  29   nfast/ndtfast =  1.45000

 Centers of gravity and integrals (values must be 1, 1, approx 1/2, 1, 1):

    1.000000000000 1.060707743385 0.530353871693 1.000000000000 1.000000000000

 Power filter parameters, Fgamma, gamma =  0.28400   0.14200

 Metrics information for Grid 01:
 ===============================

 Minimum X-grid spacing, DXmin =  5.00000000E-02 km
 Maximum X-grid spacing, DXmax =  5.00000000E-02 km
 Minimum Y-grid spacing, DYmin =  5.00000000E-02 km
 Maximum Y-grid spacing, DYmax =  5.00000000E-02 km
 Minimum Z-grid spacing, DZmin = -1.68647648E+00 m
 Maximum Z-grid spacing, DZmax =  5.39100492E+00 m

 Minimum barotropic Courant Number =  6.14210106E-04
 Maximum barotropic Courant Number =  1.28759077E-01
 Maximum Coriolis   Courant Number =  3.01743831E-04


 Minimum horizontal diffusion coefficient =  4.16666667E-01 m2/s
 Maximum horizontal diffusion coefficient =  4.16666667E-01 m2/s

 Minimum horizontal viscosity coefficient =  4.16666667E-01 m2/s
 Maximum horizontal viscosity coefficient =  1.00000000E+20 m2/s
    ANA_INITIAL - vertically integrated u-momentum component: ubar
                   (Grid = 01, Min =  0.00000000E+00 Max =  0.00000000E+00)
    ANA_INITIAL - vertically integrated v-momentum component: vbar
                   (Grid = 01, Min =  0.00000000E+00 Max =  0.00000000E+00)
    ANA_INITIAL - free-surface: zeta
                   (Grid = 01, Min =  0.00000000E+00 Max =  0.00000000E+00)
    ANA_INITIAL - u-momentum component: u
                   (Grid = 01, Min =  0.00000000E+00 Max =  0.00000000E+00)
    ANA_INITIAL - v-momentum component: v
                   (Grid = 01, Min =  0.00000000E+00 Max =  0.00000000E+00)
    ANA_INITIAL - potential temperature: temp
                   (Grid = 01, Min =  2.90000000E+01 Max =  2.90000000E+01)
    ANA_INITIAL - salinity: salt
                   (Grid = 01, Min =  3.44500000E+01 Max =  3.44500000E+01)
    ANA_BIOLOGY - total inorganic carbon: TIC
                   (Grid = 01, Min =  1.91500000E+03 Max =  1.91500000E+03)
    ANA_BIOLOGY - total alkalinity: alkalinity
                   (Grid = 01, Min =  2.23200000E+03 Max =  2.23200000E+03)
    ANA_BIOLOGY - dissolved oxygen concentration: oxygen
                   (Grid = 01, Min =  1.93952728E+02 Max =  1.93952728E+02)
    ANA_BIOLOGY - dissolved organic carbon, functional group 01: DOC_01
                   (Grid = 01, Min =  5.00000000E+00 Max =  5.00000000E+00)
    ANA_BIOLOGY - dissolved organic carbon, functional group 02: DOC_02
                   (Grid = 01, Min =  5.00000000E+01 Max =  5.00000000E+01)
    ANA_BIOLOGY - particulate organic carbon, functional group 01: POC_01
                   (Grid = 01, Min =  1.00000000E+00 Max =  1.00000000E+00)
    ANA_BIOLOGY - particulate organic carbon, functional group 02: POC_02
                   (Grid = 01, Min =  0.00000000E+00 Max =  0.00000000E+00)
    ANA_BIOLOGY - phytoplankton, functional group 01: phytoplankton_01
                   (Grid = 01, Min =  5.00000000E-01 Max =  5.00000000E-01)
    ANA_BIOLOGY - phytoplankton, functional group 02: phytoplankton_02
                   (Grid = 01, Min =  5.00000000E-01 Max =  5.00000000E-01)
    ANA_BIOLOGY - phytoplankton, functional group 03: phytoplankton_03
                   (Grid = 01, Min =  5.00000000E-01 Max =  5.00000000E-01)
    ANA_BIOLOGY - zooplankton, functional group 01: zooplankton_01
                   (Grid = 01, Min =  1.00000000E-01 Max =  1.00000000E-01)
    ANA_BIOLOGY - particulate inorganic carbon, functional group 01: PIC_01
                   (Grid = 01, Min =  5.00000000E-01 Max =  5.00000000E-01)
    ANA_BIOLOGY - nitrate concentration: NO3
                   (Grid = 01, Min =  1.00000000E-01 Max =  1.00000000E-01)
    ANA_BIOLOGY - ammonium concentration: NH4
                   (Grid = 01, Min =  2.60000000E-01 Max =  2.60000000E-01)
    ANA_BIOLOGY - phosphate concentration: PO4
                   (Grid = 01, Min =  4.00000000E-02 Max =  4.00000000E-02)
    ANA_BIOLOGY - dissolved organic nitrogen concentration, functional group 01: DON_01
                   (Grid = 01, Min =  1.00000000E+00 Max =  1.00000000E+00)
    ANA_BIOLOGY - dissolved organic nitrogen concentration, functional group 02: DON_02
                   (Grid = 01, Min =  1.00000000E+01 Max =  1.00000000E+01)
    ANA_BIOLOGY - particulate organic nitrogen concentration, functional group 01: PON_01
                   (Grid = 01, Min =  6.00000000E-01 Max =  6.00000000E-01)
    ANA_BIOLOGY - particulate organic nitrogen concentration, functional group 02: PON_02
                   (Grid = 01, Min =  0.00000000E+00 Max =  0.00000000E+00)
    ANA_BIOLOGY - dissolved organic phosphorus concentration, functional group 01: DOP_01
                   (Grid = 01, Min =  6.00000000E-02 Max =  6.00000000E-02)
    ANA_BIOLOGY - dissolved organic phosphorus concentration, functional group 02: DOP_02
                   (Grid = 01, Min =  6.00000000E-01 Max =  6.00000000E-01)
    ANA_BIOLOGY - particulate organic phosphorus concentration, functional group 01: POP_01
                   (Grid = 01, Min =  4.00000000E-02 Max =  4.00000000E-02)
    ANA_BIOLOGY - particulate organic phosphorus concentration, functional group 02: POP_02
                   (Grid = 01, Min =  0.00000000E+00 Max =  0.00000000E+00)
    GET_2DFLD   - surface u-wind component,                        2010-08-20 00:00:00.00
                   (Grid=01, Rec=0000001, Index=1, File: frc_air100820-1001v3_ref20000101.nc)
                   (Tmin=       3884.0000 Tmax=       3927.0000)      t =       3884.0000
                   (Min = -3.60313010E+00 Max = -3.60313010E+00)      regrid = F
    GET_2DFLD   - surface v-wind component,                        2010-08-20 00:00:00.00
                   (Grid=01, Rec=0000001, Index=1, File: frc_air100820-1001v3_ref20000101.nc)
                   (Tmin=       3884.0000 Tmax=       3927.0000)      t =       3884.0000
                   (Min = -1.49246502E+00 Max = -1.49246502E+00)      regrid = F
    GET_2DFLD   - surface air pressure,                            2010-08-20 00:00:00.00
                   (Grid=01, Rec=0000001, Index=1, File: frc_air100820-1001v3_ref20000101.nc)
                   (Tmin=       3884.0000 Tmax=       3927.0000)      t =       3884.0000
                   (Min =  1.01520001E+03 Max =  1.01520001E+03)      regrid = F
    GET_2DFLD   - surface air temperature,                         2010-08-20 00:00:00.00
                   (Grid=01, Rec=0000001, Index=1, File: frc_air100820-1001v3_ref20000101.nc)
                   (Tmin=       3884.0000 Tmax=       3927.0000)      t =       3884.0000
                   (Min =  2.92000008E+01 Max =  2.92000008E+01)      regrid = F
    GET_2DFLD   - surface air relative humidity,                   2010-08-20 00:00:00.00
                   (Grid=01, Rec=0000001, Index=1, File: frc_air100820-1001v3_ref20000101.nc)
                   (Tmin=       3884.0000 Tmax=       3927.0000)      t =       3884.0000
                   (Min =  7.70000000E-01 Max =  7.70000000E-01)      regrid = F
    GET_2DFLD   - cloud fraction,                                  2010-08-20 00:00:00.00
                   (Grid=01, Rec=0000001, Index=1, File: frc_air100820-1001v3_ref20000101.nc)
                   (Tmin=       3884.0000 Tmax=       3927.0000)      t =       3884.0000
                   (Min =  8.50000024E-01 Max =  8.50000024E-01)      regrid = F
    GET_2DFLD   - solar shortwave radiation flux,                  2010-08-20 00:00:00.00
                   (Grid=01, Rec=0000001, Index=1, File: frc_air100820-1001v3_ref20000101.nc)
                   (Tmin=       3884.0000 Tmax=       3927.0000)      t =       3884.0000
                   (Min =  0.00000000E+00 Max =  0.00000000E+00)      regrid = F
    GET_2DFLD   - rain fall rate,                                  2010-08-20 00:00:00.00
                   (Grid=01, Rec=0000001, Index=1, File: frc_air100820-1001v3_ref20000101.nc)
                   (Tmin=       3884.0000 Tmax=       3927.0000)      t =       3884.0000
                   (Min =  0.00000000E+00 Max =  0.00000000E+00)      regrid = F
    GET_NGFLD   - free-surface eastern boundary condition,         2010-08-20 00:00:00.00
                   (Grid= 01, Rec=0000001, Index=2, File: bry_tide_tr100820-0930v3_ref20000101.nc)
                   (Tmin=       3884.0000 Tmax=       3925.9583)      t =       3884.0000
                   (Min =  0.00000000E+00 Max =  0.00000000E+00)

 Basin information for Grid 01:

 Maximum grid stiffness ratios:  rx0 =   3.516971E+04 (Beckmann and Haidvogel)
                                 rx1 =   1.757894E+04 (Haney)

 Initial domain volumes:  TotVolume =  4.2005474370E+08 m3
                         MinCellVol = -3.8368835360E+02 m3
                         MaxCellVol =  1.3477512309E+04 m3
                            Max/Min = -3.5126195995E+01
 == SWAN grid  1 sent wave data to ROMS grid  1
 ** ROMS grid  1 recv data from SWAN grid  1
SWANtoROMS Min/Max DISBOT  (Wm-2):     0.000000E+00  0.000000E+00
SWANtoROMS Min/Max DISSURF (Wm-2):     0.000000E+00  0.000000E+00
SWANtoROMS Min/Max DISWCAP (Wm-2):     0.000000E+00  0.000000E+00
SWANtoROMS Min/Max HSIGN   (m):        0.000000E+00  3.153822E-01
SWANtoROMS Min/Max RTP     (s):        0.000000E+00  5.873094E+00
SWANtoROMS Min/Max TMBOT   (s):        0.000000E+00  7.352165E+00
SWANtoROMS Min/Max UBOT    (ms-1):     0.000000E+00  8.931311E-02
SWANtoROMS Min/Max DIR     (deg):      0.000000E+00  3.141593E+00
SWANtoROMS Min/Max WLEN    (m):        1.000000E+00  3.529719E+01


 ** ROMS grid  1 sent data to SWAN grid  1



 NL ROMS/TOMS: started time-stepping: (Grid: 01 TimeSteps: 000000000001 - 000000259200)

    GET_2DFLD   - surface u-wind component,                        2010-08-20 01:00:00.00
                   (Grid=01, Rec=0000002, Index=2, File: frc_air100820-1001v3_ref20000101.nc)
                   (Tmin=       3884.0000 Tmax=       3927.0000)      t =       3884.0417
                   (Min = -3.41835403E+00 Max = -3.41835403E+00)      regrid = F
    GET_2DFLD   - surface v-wind component,                        2010-08-20 01:00:00.00
                   (Grid=01, Rec=0000002, Index=2, File: frc_air100820-1001v3_ref20000101.nc)
                   (Tmin=       3884.0000 Tmax=       3927.0000)      t =       3884.0417
                   (Min = -1.41592896E+00 Max = -1.41592896E+00)      regrid = F
    GET_2DFLD   - surface air pressure,                            2010-08-20 01:00:00.00
                   (Grid=01, Rec=0000002, Index=2, File: frc_air100820-1001v3_ref20000101.nc)
                   (Tmin=       3884.0000 Tmax=       3927.0000)      t =       3884.0417
                   (Min =  1.01459998E+03 Max =  1.01459998E+03)      regrid = F
 == SWAN grid  1 recv data from ROMS grid  1
    GET_2DFLD   - surface air temperature,                         2010-08-20 01:00:00.00
                   (Grid=01, Rec=0000002, Index=2, File: frc_air100820-1001v3_ref20000101.nc)
                   (Tmin=       3884.0000 Tmax=       3927.0000)      t =       3884.0417
                   (Min =  2.83999996E+01 Max =  2.83999996E+01)      regrid = F
    GET_2DFLD   - surface air relative humidity,                   2010-08-20 01:00:00.00
                   (Grid=01, Rec=0000002, Index=2, File: frc_air100820-1001v3_ref20000101.nc)
                   (Tmin=       3884.0000 Tmax=       3927.0000)      t =       3884.0417
                   (Min =  8.20000000E-01 Max =  8.20000000E-01)      regrid = F
    GET_2DFLD   - cloud fraction,                                  2010-08-20 01:00:00.00
                   (Grid=01, Rec=0000002, Index=2, File: frc_air100820-1001v3_ref20000101.nc)
                   (Tmin=       3884.0000 Tmax=       3927.0000)      t =       3884.0417
                   (Min =  8.00000012E-01 Max =  8.00000012E-01)      regrid = F
    GET_2DFLD   - solar shortwave radiation flux,                  2010-08-20 01:00:00.00
                   (Grid=01, Rec=0000002, Index=2, File: frc_air100820-1001v3_ref20000101.nc)
                   (Tmin=       3884.0000 Tmax=       3927.0000)      t =       3884.0417
                   (Min =  0.00000000E+00 Max =  0.00000000E+00)      regrid = F
    GET_2DFLD   - rain fall rate,                                  2010-08-20 01:00:00.00
                   (Grid=01, Rec=0000002, Index=2, File: frc_air100820-1001v3_ref20000101.nc)
                   (Tmin=       3884.0000 Tmax=       3927.0000)      t =       3884.0417
                   (Min =  0.00000000E+00 Max =  0.00000000E+00)      regrid = F
    GET_NGFLD   - free-surface eastern boundary condition,         2010-08-20 01:00:00.00
                   (Grid= 01, Rec=0000002, Index=1, File: bry_tide_tr100820-0930v3_ref20000101.nc)
                   (Tmin=       3884.0000 Tmax=       3925.9583)      t =       3884.0417
                   (Min =  0.00000000E+00 Max =  0.00000000E+00)
ROMStoSWAN Min/Max DEPTH   (m):       -1.010000E+01  3.380000E+01
ROMStoSWAN Min/Max WLEV    (m):        0.000000E+00  0.000000E+00
ROMStoSWAN Min/Max VELX    (ms-1):     0.000000E+00  0.000000E+00
ROMStoSWAN Min/Max VELY    (ms-1):     0.000000E+00  0.000000E+00
ROMStoSWAN Min/Max ZO      (m):        5.000000E-02  5.000000E-02

 TIME-STEP YYYY-MM-DD hh:mm:ss.ss  KINETIC_ENRG   POTEN_ENRG    TOTAL_ENRG    NET_VOLUME
                     C => (i,j,k)       Cu            Cv            Cw         Max Speed

         0 2010-08-20 00:00:00.00  0.000000E+00  1.504793E+02  1.504793E+02  4.206477E+08
                       (00,000,0)  0.000000E+00  0.000000E+00  0.000000E+00  0.000000E+00
      DEF_HIS     - creating  history      file, Grid 01: ocean_his_10.nc
+time 20100820.001000   , step      1; iteration    1; sweep 1 grid   1
      WRT_HIS     - wrote history     fields (Index=1,1) in record = 0000001
         1 2010-08-20 00:00:05.00  1.205640E-09  1.504793E+02  1.504793E+02  4.206477E+08
                       (22,032,8)  3.401639E-04  1.526477E-04  0.000000E+00  3.741891E-03
         2 2010-08-20 00:00:10.00  8.077092E-10  1.504793E+02  1.504793E+02  4.206477E+08
                       (21,125,8)  2.421788E-04  5.090733E-05  7.361071E-04  3.408423E-03
+time 20100820.001000   , step      1; iteration    1; sweep 2 grid   1
         3 2010-08-20 00:00:15.00  1.648578E-09  1.504793E+02  1.504793E+02  4.206477E+08
                       (04,172,7)  2.378406E-04  0.000000E+00  2.811736E-02  3.454331E-03
         4 2010-08-20 00:00:20.00  3.605089E-09  1.504793E+02  1.504793E+02  4.206477E+08
                       (04,172,7)  1.911524E-04  0.000000E+00  2.815261E-02  4.326315E-03
         5 2010-08-20 00:00:25.00  7.340352E-09  1.504793E+02  1.504793E+02  4.206477E+08
                       (04,023,8)  0.000000E+00  0.000000E+00  2.703435E-02  6.712040E-03
         6 2010-08-20 00:00:30.00  1.273848E-08  1.504793E+02  1.504793E+02  4.206477E+08
                       (04,173,8)  1.026875E-04  0.000000E+00  1.401936E-02  9.299566E-03
         7 2010-08-20 00:00:35.00  1.871158E-08  1.504793E+02  1.504793E+02  4.206477E+08
                       (04,173,8)  8.529662E-05  0.000000E+00  1.141699E-02  7.780712E-03
+time 20100820.001000   , step      1; iteration    1; sweep 3 grid   1
         8 2010-08-20 00:00:40.00  2.439279E-08  1.504792E+02  1.504792E+02  4.206478E+08
                       (04,173,8)  8.299935E-05  0.000000E+00  9.712477E-03  7.177949E-03
         9 2010-08-20 00:00:45.00  3.004442E-08  1.504792E+02  1.504792E+02  4.206478E+08
                       (04,173,8)  0.000000E+00  0.000000E+00  9.460562E-03  6.911538E-03
        10 2010-08-20 00:00:50.00  3.591608E-08  1.504792E+02  1.504792E+02  4.206478E+08
                       (04,172,8)  7.252133E-05  0.000000E+00  8.169073E-03  7.856609E-03
        11 2010-08-20 00:00:55.00  4.209227E-08  1.504792E+02  1.504792E+02  4.206478E+08
                       (04,172,8)  7.331569E-05  0.000000E+00  8.228554E-03  8.716547E-03
+time 20100820.001000   , step      1; iteration    1; sweep 4 grid   1
        12 2010-08-20 00:01:00.00  4.855549E-08  1.504791E+02  1.504791E+02  4.206478E+08
                       (04,172,8)  7.333660E-05  0.000000E+00  8.301073E-03  9.423188E-03
        13 2010-08-20 00:01:05.00  5.527838E-08  1.504791E+02  1.504791E+02  4.206479E+08
                       (04,172,8)  7.323900E-05  0.000000E+00  8.302299E-03  1.009899E-02
        14 2010-08-20 00:01:10.00  6.224683E-08  1.504791E+02  1.504791E+02  4.206479E+08
                       (04,172,8)  0.000000E+00  0.000000E+00  8.292801E-03  1.079906E-02
        15 2010-08-20 00:01:15.00  6.974072E-08  1.504791E+02  1.504791E+02  4.206479E+08
                       (12,059,8)  2.471278E-04  1.635124E-04  7.882091E-03  1.152114E-02
        16 2010-08-20 00:01:20.00  7.757564E-08  1.504790E+02  1.504790E+02  4.206480E+08
                       (12,059,8)  2.450963E-04  1.642537E-04  7.930887E-03  1.165343E-02
        17 2010-08-20 00:01:25.00  8.522971E-08  1.504790E+02  1.504790E+02  4.206480E+08
                       (05,023,8)  3.514694E-04  4.562554E-06  8.106481E-03  1.208068E-02
        18 2010-08-20 00:01:30.00  9.298310E-08  1.504790E+02  1.504790E+02  4.206480E+08
                       (05,023,8)  3.552963E-04  4.549602E-06  8.239962E-03  1.222319E-02
        19 2010-08-20 00:01:35.00  1.009449E-07  1.504789E+02  1.504789E+02  4.206481E+08
                       (05,023,8)  3.570471E-04  4.547245E-06  8.325665E-03  1.252751E-02
        20 2010-08-20 00:01:40.00  1.091821E-07  1.504789E+02  1.504789E+02  4.206481E+08
                       (05,023,8)  3.565922E-04  4.550507E-06  8.363391E-03  1.281772E-02
        21 2010-08-20 00:01:45.00  1.175007E-07  1.504789E+02  1.504789E+02  4.206482E+08
                       (05,023,8)  3.538211E-04  4.553456E-06  8.349705E-03  1.296408E-02
        22 2010-08-20 00:01:50.00  1.256648E-07  1.504788E+02  1.504788E+02  4.206482E+08
                       (05,023,8)  3.486982E-04  4.554624E-06  8.281786E-03  1.302270E-02
        23 2010-08-20 00:01:55.00  1.339552E-07  1.504788E+02  1.504788E+02  4.206483E+08
                       (23,033,1)  7.503919E-04  2.027995E-04  7.768551E-03  1.333594E-02
        24 2010-08-20 00:02:00.00  1.422613E-07  1.504788E+02  1.504788E+02  4.206483E+08
                       (23,033,1)  7.555565E-04  2.136221E-04  8.057976E-03  1.365420E-02
        25 2010-08-20 00:02:05.00  1.507000E-07  1.504787E+02  1.504787E+02  4.206484E+08
                       (23,033,1)  7.626118E-04  2.253863E-04  8.278593E-03  1.393900E-02
        26 2010-08-20 00:02:10.00  1.590315E-07  1.504787E+02  1.504787E+02  4.206484E+08
                       (23,033,1)  7.705335E-04  2.378813E-04  8.410518E-03  1.428313E-02
        27 2010-08-20 00:02:15.00  1.674341E-07  1.504786E+02  1.504786E+02  4.206485E+08
                       (23,033,1)  7.786096E-04  2.506380E-04  8.472260E-03  1.450561E-02
        28 2010-08-20 00:02:20.00  1.758915E-07  1.504786E+02  1.504786E+02  4.206485E+08
                       (23,033,1)  7.865153E-04  2.633347E-04  8.486511E-03  1.488914E-02
        29 2010-08-20 00:02:25.00  1.844681E-07  1.504786E+02  1.504786E+02  4.206486E+08
                       (23,033,1)  7.937356E-04  2.756723E-04  8.459336E-03  1.508667E-02
        30 2010-08-20 00:02:30.00  1.928035E-07  1.504785E+02  1.504785E+02  4.206487E+08
                       (23,033,1)  8.003195E-04  2.873702E-04  8.379831E-03  1.540832E-02
        31 2010-08-20 00:02:35.00  2.014271E-07  1.504785E+02  1.504785E+02  4.206487E+08
                       (23,033,1)  8.053601E-04  2.982067E-04  8.266100E-03  1.574704E-02
        32 2010-08-20 00:02:40.00  2.099298E-07  1.504784E+02  1.504784E+02  4.206488E+08
                       (23,033,1)  8.099099E-04  3.080572E-04  8.092546E-03  1.610267E-02
        33 2010-08-20 00:02:45.00  2.185127E-07  1.504784E+02  1.504784E+02  4.206489E+08
                       (23,033,1)  8.141678E-04  3.169190E-04  7.932600E-03  1.647324E-02
        34 2010-08-20 00:02:50.00  2.269081E-07  1.504784E+02  1.504784E+02  4.206489E+08
                       (23,033,1)  8.171824E-04  3.248956E-04  7.819563E-03  1.685377E-02
        35 2010-08-20 00:02:55.00  2.357285E-07  1.504783E+02  1.504783E+02  4.206490E+08
                       (23,033,1)  8.198175E-04  3.321771E-04  7.706430E-03  1.723938E-02
        36 2010-08-20 00:03:00.00  2.442815E-07  1.504783E+02  1.504783E+02  4.206491E+08
                       (23,033,1)  8.218724E-04  3.390094E-04  7.643255E-03  1.762495E-02
        37 2010-08-20 00:03:05.00  2.528490E-07  1.504782E+02  1.504782E+02  4.206492E+08
                       (23,033,1)  8.229444E-04  3.456576E-04  7.625866E-03  1.800640E-02
        38 2010-08-20 00:03:10.00  2.615274E-07  1.504782E+02  1.504782E+02  4.206493E+08
                       (23,033,1)  8.231831E-04  3.523757E-04  7.625073E-03  1.838048E-02
        39 2010-08-20 00:03:15.00  2.701902E-07  1.504781E+02  1.504781E+02  4.206493E+08
                       (23,033,1)  8.226543E-04  3.593523E-04  7.647554E-03  1.874492E-02
        40 2010-08-20 00:03:20.00  2.788322E-07  1.504781E+02  1.504781E+02  4.206494E+08
                       (23,033,1)  8.223347E-04  3.640792E-04  7.689741E-03  1.909894E-02
        41 2010-08-20 00:03:25.00  2.873997E-07  1.504780E+02  1.504780E+02  4.206495E+08
                       (23,033,1)  8.224575E-04  3.714087E-04  7.793510E-03  1.944282E-02
        42 2010-08-20 00:03:30.00  2.962271E-07  1.504780E+02  1.504780E+02  4.206496E+08
                       (23,033,1)  8.226227E-04  3.798685E-04  7.959141E-03  1.977816E-02
        43 2010-08-20 00:03:35.00  3.049127E-07  1.504779E+02  1.504779E+02  4.206497E+08
                       (23,033,1)  8.231722E-04  3.102615E-04  8.150103E-03  2.010745E-02
        44 2010-08-20 00:03:40.00  3.136514E-07  1.504779E+02  1.504779E+02  4.206498E+08
                       (23,033,1)  8.241929E-04  3.567645E-04  8.567708E-03  2.043263E-02
        45 2010-08-20 00:03:45.00  3.223234E-07  1.504778E+02  1.504778E+02  4.206499E+08
                       (23,033,1)  8.253526E-04  3.761378E-04  8.717662E-03  2.075650E-02
        46 2010-08-20 00:03:50.00  3.312201E-07  1.504778E+02  1.504778E+02  4.206500E+08
                       (23,033,1)  8.285399E-04  3.908074E-04  8.904262E-03  2.108045E-02
        47 2010-08-20 00:03:55.00  3.400561E-07  1.504777E+02  1.504777E+02  4.206501E+08
                       (23,033,1)  8.328568E-04  4.016051E-04  9.151565E-03  2.140540E-02
        48 2010-08-20 00:04:00.00  3.488230E-07  1.504777E+02  1.504777E+02  4.206502E+08
                       (23,033,1)  8.377019E-04  3.310400E-04  9.433757E-03  2.173104E-02
        49 2010-08-20 00:04:05.00  3.576981E-07  1.504776E+02  1.504777E+02  4.206503E+08
                       (23,033,1)  8.427964E-04  3.817150E-04  9.912791E-03  2.205738E-02
        50 2010-08-20 00:04:10.00  3.664634E-07  1.504776E+02  1.504776E+02  4.206504E+08
                       (23,033,1)  8.487310E-04  4.031706E-04  1.005980E-02  2.237957E-02
        51 2010-08-20 00:04:15.00  3.752923E-07  1.504776E+02  1.504776E+02  4.206505E+08
                       (23,033,1)  8.554790E-04  3.353462E-04  1.025620E-02  2.269615E-02
        52 2010-08-20 00:04:20.00  3.841166E-07  1.504775E+02  1.504775E+02  4.206506E+08
                       (23,033,1)  8.621662E-04  3.839262E-04  1.064315E-02  2.300284E-02
        53 2010-08-20 00:04:25.00  3.931699E-07  1.504774E+02  1.504775E+02  4.206508E+08
                       (23,033,1)  8.689145E-04  4.057669E-04  1.068464E-02  2.329589E-02
        54 2010-08-20 00:04:30.00  4.020410E-07  1.504774E+02  1.504774E+02  4.206509E+08
                       (23,033,1)  8.760862E-04  3.373240E-04  1.075223E-02  2.357032E-02
        55 2010-08-20 00:04:35.00  4.109306E-07  1.504773E+02  1.504773E+02  4.206510E+08
                       (23,033,1)  8.825364E-04  3.858280E-04  1.102028E-02  2.382295E-02
        56 2010-08-20 00:04:40.00  4.198620E-07  1.504773E+02  1.504773E+02  4.206511E+08
                       (23,033,1)  8.885295E-04  4.074229E-04  1.093543E-02  2.405096E-02
        57 2010-08-20 00:04:45.00  4.287949E-07  1.504772E+02  1.504772E+02  4.206512E+08
                       (23,033,1)  8.942765E-04  3.382668E-04  1.088210E-02  2.425230E-02
        58 2010-08-20 00:04:50.00  4.378373E-07  1.504772E+02  1.504772E+02  4.206513E+08
                       (23,033,1)  8.989936E-04  3.868633E-04  1.103282E-02  2.442597E-02
        59 2010-08-20 00:04:55.00  4.466547E-07  1.504771E+02  1.504771E+02  4.206515E+08
                       (23,033,1)  9.026662E-04  4.085259E-04  1.085345E-02  2.457156E-02
        60 2010-08-20 00:05:00.00  4.555735E-07  1.504771E+02  1.504771E+02  4.206516E+08
                       (23,033,1)  7.905968E-04  3.388728E-04  1.071579E-02  2.468942E-02
        61 2010-08-20 00:05:05.00  4.647374E-07  1.504770E+02  1.504770E+02  4.206517E+08
                       (23,035,1)  2.710932E-04  5.252893E-04  8.558206E-03  2.478064E-02
        62 2010-08-20 00:05:10.00  4.735341E-07  1.504770E+02  1.504770E+02  4.206519E+08
                       (23,035,1)  2.713056E-04  4.538392E-04  8.580324E-03  2.484698E-02
        63 2010-08-20 00:05:15.00  4.825980E-07  1.504769E+02  1.504769E+02  4.206520E+08
                       (23,035,1)  2.683631E-04  4.994542E-04  8.634312E-03  2.489077E-02
        64 2010-08-20 00:05:20.00  4.915316E-07  1.504769E+02  1.504769E+02  4.206521E+08
                       (23,033,1)  8.649124E-04  3.924118E-04  8.183307E-03  2.491481E-02
        65 2010-08-20 00:05:25.00  5.004695E-07  1.504768E+02  1.504768E+02  4.206522E+08
                       (23,033,1)  8.713591E-04  3.242652E-04  8.621577E-03  2.492256E-02
        66 2010-08-20 00:05:30.00  5.093567E-07  1.504768E+02  1.504768E+02  4.206524E+08
                       (23,033,1)  8.743049E-04  3.698888E-04  9.171370E-03  2.491696E-02
        67 2010-08-20 00:05:35.00  5.184424E-07  1.504767E+02  1.504767E+02  4.206525E+08
                       (23,033,1)  8.748753E-04  3.894288E-04  9.331215E-03  2.490170E-02
        68 2010-08-20 00:05:40.00  5.272008E-07  1.504767E+02  1.504767E+02  4.206527E+08
                       (23,033,1)  8.743834E-04  3.219198E-04  9.476039E-03  2.488017E-02
        69 2010-08-20 00:05:45.00  5.361737E-07  1.504766E+02  1.504766E+02  4.206528E+08
                       (23,033,1)  8.725253E-04  3.652971E-04  9.798958E-03  2.485574E-02
        70 2010-08-20 00:05:50.00  5.450046E-07  1.504765E+02  1.504765E+02  4.206529E+08
                       (23,033,1)  8.696054E-04  3.877082E-04  9.790905E-03  2.483147E-02
        71 2010-08-20 00:05:55.00  5.539695E-07  1.504765E+02  1.504765E+02  4.206531E+08
                       (23,033,1)  8.659140E-04  4.018919E-04  9.806841E-03  2.481004E-02
        72 2010-08-20 00:06:00.00  5.626695E-07  1.504764E+02  1.504764E+02  4.206532E+08
                       (23,033,1)  8.609671E-04  3.310563E-04  9.791022E-03  2.479392E-02
        73 2010-08-20 00:06:05.00  5.715797E-07  1.504764E+02  1.504764E+02  4.206534E+08
                       (23,033,1)  8.542608E-04  3.771188E-04  9.946598E-03  2.478463E-02
        74 2010-08-20 00:06:10.00  5.803201E-07  1.504763E+02  1.504763E+02  4.206535E+08
                       (23,033,1)  8.466103E-04  3.970726E-04  9.743015E-03  2.478386E-02
        75 2010-08-20 00:06:15.00  5.891613E-07  1.504763E+02  1.504763E+02  4.206537E+08
                       (23,033,1)  8.384613E-04  4.081408E-04  9.565704E-03  2.479200E-02
        76 2010-08-20 00:06:20.00  5.978724E-07  1.504762E+02  1.504762E+02  4.206538E+08
                       (23,033,1)  8.300968E-04  3.341591E-04  9.384954E-03  2.480958E-02
        77 2010-08-20 00:06:25.00  6.066259E-07  1.504762E+02  1.504762E+02  4.206539E+08
                       (23,033,1)  8.213929E-04  3.797039E-04  9.436207E-03  2.483673E-02
        78 2010-08-20 00:06:30.00  6.153350E-07  1.504761E+02  1.504761E+02  4.206541E+08
                       (23,033,1)  8.132130E-04  3.986056E-04  9.201169E-03  2.487298E-02
        79 2010-08-20 00:06:35.00  6.239908E-07  1.504761E+02  1.504761E+02  4.206542E+08
                       (23,033,1)  8.058418E-04  4.113648E-04  9.073394E-03  2.491747E-02
        80 2010-08-20 00:06:40.00  6.326983E-07  1.504760E+02  1.504760E+02  4.206544E+08
                       (23,033,1)  7.989887E-04  4.220072E-04  8.998405E-03  2.496933E-02
        81 2010-08-20 00:06:45.00  6.413060E-07  1.504760E+02  1.504760E+02  4.206546E+08
                       (23,033,1)  7.923924E-04  3.443011E-04  8.971154E-03  2.502716E-02
        82 2010-08-20 00:06:50.00  6.499438E-07  1.504759E+02  1.504759E+02  4.206547E+08
                       (23,033,1)  8.920197E-04  3.897782E-04  9.202137E-03  2.508939E-02
        83 2010-08-20 00:06:55.00  6.586108E-07  1.504759E+02  1.504759E+02  4.206549E+08
                       (23,033,1)  8.278308E-04  4.078713E-04  9.173370E-03  2.515459E-02
        84 2010-08-20 00:07:00.00  6.670865E-07  1.504759E+02  1.504759E+02  4.206550E+08
                       (23,033,1)  8.145919E-04  4.231779E-04  9.180086E-03  2.522065E-02
        85 2010-08-20 00:07:05.00  6.757161E-07  1.504758E+02  1.504758E+02  4.206552E+08
                       (23,033,1)  8.035297E-04  4.325342E-04  9.251624E-03  2.528622E-02
        86 2010-08-20 00:07:10.00  6.843576E-07  1.504758E+02  1.504758E+02  4.206553E+08
                       (23,033,1)  7.942597E-04  4.407999E-04  9.361591E-03  2.534922E-02
        87 2010-08-20 00:07:15.00  6.929553E-07  1.504757E+02  1.504757E+02  4.206555E+08
                       (23,033,1)  8.922006E-04  3.579690E-04  9.498145E-03  2.540841E-02
        88 2010-08-20 00:07:20.00  7.015110E-07  1.504757E+02  1.504757E+02  4.206556E+08
                       (23,033,1)  8.288251E-04  4.000141E-04  9.906436E-03  2.546277E-02
        89 2010-08-20 00:07:25.00  7.100842E-07  1.504757E+02  1.504757E+02  4.206558E+08
                       (23,033,1)  8.153847E-04  4.166008E-04  9.927830E-03  2.551170E-02
        90 2010-08-20 00:07:30.00  7.186211E-07  1.504756E+02  1.504756E+02  4.206559E+08
                       (23,033,1)  8.048969E-04  4.281658E-04  1.001227E-02  2.555465E-02
        91 2010-08-20 00:07:35.00  7.271661E-07  1.504756E+02  1.504756E+02  4.206561E+08
                       (23,033,1)  9.004381E-04  4.384031E-04  1.008455E-02  2.559219E-02
        92 2010-08-20 00:07:40.00  7.357608E-07  1.504756E+02  1.504756E+02  4.206562E+08
                       (23,033,1)  7.262097E-04  3.614303E-04  1.016049E-02  2.562463E-02
        93 2010-08-20 00:07:45.00  7.442266E-07  1.504755E+02  1.504755E+02  4.206564E+08
                       (24,035,1)  3.781114E-04  4.756605E-04  7.167314E-03  2.565335E-02
        94 2010-08-20 00:07:50.00  7.528252E-07  1.504755E+02  1.504755E+02  4.206565E+08
                       (24,035,1)  3.857530E-04  4.819105E-04  7.228389E-03  2.567910E-02
        95 2010-08-20 00:07:55.00  7.613922E-07  1.504755E+02  1.504755E+02  4.206567E+08
                       (23,033,1)  8.505664E-04  4.338908E-04  7.360660E-03  2.570340E-02
        96 2010-08-20 00:08:00.00  7.697961E-07  1.504754E+02  1.504754E+02  4.206568E+08
                       (23,033,1)  7.938563E-04  3.550199E-04  7.989119E-03  2.572761E-02
        97 2010-08-20 00:08:05.00  7.784498E-07  1.504754E+02  1.504754E+02  4.206569E+08
                       (23,033,1)  7.842252E-04  4.054087E-04  8.637409E-03  2.575297E-02
        98 2010-08-20 00:08:10.00  7.869433E-07  1.504754E+02  1.504754E+02  4.206571E+08
                       (23,033,1)  8.790748E-04  4.246870E-04  8.828119E-03  2.577985E-02
        99 2010-08-20 00:08:15.00  7.954813E-07  1.504754E+02  1.504754E+02  4.206572E+08
                       (23,033,1)  8.121704E-04  4.378551E-04  9.016659E-03  2.580884E-02
       100 2010-08-20 00:08:20.00  8.040599E-07  1.504753E+02  1.504753E+02  4.206574E+08
                       (23,033,1)  7.959321E-04  3.605315E-04  9.108673E-03  2.584010E-02
       101 2010-08-20 00:08:25.00  8.126555E-07  1.504753E+02  1.504753E+02  4.206575E+08
                       (23,033,1)  8.869251E-04  4.080950E-04  9.431655E-03  2.587334E-02
       102 2010-08-20 00:08:30.00  8.211582E-07  1.504753E+02  1.504753E+02  4.206576E+08
                       (23,033,1)  8.172888E-04  4.278290E-04  9.454326E-03  2.590781E-02
       103 2010-08-20 00:08:35.00  8.297678E-07  1.504753E+02  1.504753E+02  4.206578E+08
                       (23,033,1)  9.064566E-04  3.544389E-04  9.507061E-03  2.594284E-02
       104 2010-08-20 00:08:40.00  8.381497E-07  1.504753E+02  1.504753E+02  4.206579E+08
                       (23,033,1)  8.326543E-04  4.026936E-04  9.867386E-03  2.597780E-02
       105 2010-08-20 00:08:45.00  8.468598E-07  1.504752E+02  1.504752E+02  4.206580E+08
[...]
                       (23,044,1)  4.503076E-05  6.447052E-03  2.480095E-01  2.124920E-01
      2005 2010-08-20 02:47:05.00  7.963815E-05  1.504464E+02  1.504465E+02  4.207435E+08
                       (23,044,1)  4.752318E-05  6.453238E-03  2.480712E-01  2.124972E-01
      2006 2010-08-20 02:47:10.00  7.964347E-05  1.504464E+02  1.504465E+02  4.207435E+08
                       (23,044,1)  5.061710E-05  6.459624E-03  2.481869E-01  2.125089E-01
      2007 2010-08-20 02:47:15.00  7.964819E-05  1.504464E+02  1.504465E+02  4.207436E+08
                       (23,044,1)  5.392417E-05  6.465505E-03  2.482880E-01  2.125233E-01
      2008 2010-08-20 02:47:20.00  7.965319E-05  1.504464E+02  1.504465E+02  4.207437E+08
                       (23,044,1)  5.713195E-05  6.469910E-03  2.483190E-01  2.125384E-01
      2009 2010-08-20 02:47:25.00  7.965814E-05  1.504464E+02  1.504464E+02  4.207437E+08
                       (23,044,1)  6.040921E-05  6.472384E-03  2.482435E-01  2.125524E-01
      2010 2010-08-20 02:47:30.00  7.966351E-05  1.504463E+02  1.504464E+02  4.207438E+08
                       (23,044,1)  6.404920E-05  6.472298E-03  2.480741E-01  2.125651E-01
      2011 2010-08-20 02:47:35.00  7.966867E-05  1.504463E+02  1.504464E+02  4.207438E+08
                       (23,044,1)  6.859398E-05  6.469725E-03  2.478517E-01  2.125762E-01
      2012 2010-08-20 02:47:40.00  7.967394E-05  1.504463E+02  1.504464E+02  4.207439E+08
                       (23,044,1)  7.423814E-05  6.464952E-03  2.476423E-01  2.125854E-01
      2013 2010-08-20 02:47:45.00  7.967941E-05  1.504463E+02  1.504464E+02  4.207440E+08
                       (23,044,1)  8.092158E-05  6.458723E-03  2.474902E-01  2.125941E-01
      2014 2010-08-20 02:47:50.00  7.968560E-05  1.504463E+02  1.504463E+02  4.207440E+08
                       (23,044,1)  8.807228E-05  6.452110E-03  2.474123E-01  2.126033E-01
      2015 2010-08-20 02:47:55.00  7.969080E-05  1.504462E+02  1.504463E+02  4.207441E+08
                       (23,044,1)  9.501766E-05  6.445990E-03  2.473819E-01  2.126154E-01
      2016 2010-08-20 02:48:00.00  7.969648E-05  1.504462E+02  1.504463E+02  4.207441E+08
                       (23,044,1)  1.012629E-04  6.441436E-03  2.473601E-01  2.126327E-01
      2017 2010-08-20 02:48:05.00  7.970227E-05  1.504462E+02  1.504463E+02  4.207442E+08
                       (23,044,1)  1.066231E-04  6.438806E-03  2.473197E-01  2.126545E-01
      2018 2010-08-20 02:48:10.00  7.970839E-05  1.504462E+02  1.504463E+02  4.207443E+08
                       (23,044,1)  1.113534E-04  6.438508E-03  2.472629E-01  2.126791E-01
      2019 2010-08-20 02:48:15.00  7.971436E-05  1.504462E+02  1.504462E+02  4.207443E+08
                       (23,044,1)  1.157886E-04  6.440257E-03  2.472240E-01  2.127023E-01
      2020 2010-08-20 02:48:20.00  7.972053E-05  1.504461E+02  1.504462E+02  4.207444E+08
                       (23,044,1)  1.202268E-04  6.443818E-03  2.472421E-01  2.127205E-01
      2021 2010-08-20 02:48:25.00  7.972707E-05  1.504461E+02  1.504462E+02  4.207445E+08
                       (23,044,1)  1.245687E-04  6.448515E-03  2.473410E-01  2.127320E-01
      2022 2010-08-20 02:48:30.00  7.973346E-05  1.504461E+02  1.504462E+02  4.207445E+08
                       (23,044,1)  1.285924E-04  6.453781E-03  2.475044E-01  2.127373E-01
      2023 2010-08-20 02:48:35.00  7.973981E-05  1.504461E+02  1.504462E+02  4.207446E+08
                       (23,044,1)  1.319817E-04  6.458960E-03  2.476945E-01  2.127402E-01
      2024 2010-08-20 02:48:40.00  7.974682E-05  1.504461E+02  1.504462E+02  4.207446E+08
                       (23,044,1)  1.345629E-04  6.463340E-03  2.478614E-01  2.127440E-01
      2025 2010-08-20 02:48:45.00  7.975316E-05  1.504461E+02  1.504461E+02  4.207447E+08
                       (23,044,1)  1.365650E-04  6.466555E-03  2.479711E-01  2.127522E-01
      2026 2010-08-20 02:48:50.00  7.975995E-05  1.504461E+02  1.504461E+02  4.207448E+08
                       (23,044,1)  1.382051E-04  6.468058E-03  2.480197E-01  2.127667E-01
      2027 2010-08-20 02:48:55.00  7.976654E-05  1.504460E+02  1.504461E+02  4.207448E+08
                       (23,044,1)  1.399868E-04  6.467863E-03  2.480200E-01  2.127872E-01
      2028 2010-08-20 02:49:00.00  7.977342E-05  1.504460E+02  1.504461E+02  4.207449E+08
                       (23,044,1)  1.421391E-04  6.465918E-03  2.480088E-01  2.128108E-01
      2029 2010-08-20 02:49:05.00  7.978057E-05  1.504460E+02  1.504461E+02  4.207449E+08
                       (23,044,1)  1.447623E-04  6.462690E-03  2.480088E-01  2.128343E-01
      2030 2010-08-20 02:49:10.00  7.978773E-05  1.504460E+02  1.504461E+02  4.207450E+08
                       (23,044,1)  1.476303E-04  6.458714E-03  2.480343E-01  2.128537E-01
      2031 2010-08-20 02:49:15.00  7.979491E-05  1.504460E+02  1.504461E+02  4.207451E+08
                       (23,044,1)  1.503605E-04  6.454865E-03  2.480731E-01  2.128668E-01
      2032 2010-08-20 02:49:20.00  7.980230E-05  1.504460E+02  1.504460E+02  4.207451E+08
                       (23,044,1)  1.524705E-04  6.451997E-03  2.481001E-01  2.128744E-01
      2033 2010-08-20 02:49:25.00  7.980990E-05  1.504460E+02  1.504460E+02  4.207452E+08
                       (23,044,1)  1.537164E-04  6.450869E-03  2.480889E-01  2.128777E-01
      2034 2010-08-20 02:49:30.00  7.981763E-05  1.504459E+02  1.504460E+02  4.207452E+08
                       (23,044,1)  1.539797E-04  6.451977E-03  2.480325E-01  2.128799E-01
      2035 2010-08-20 02:49:35.00  7.982562E-05  1.504459E+02  1.504460E+02  4.207453E+08
                       (23,044,1)  1.534855E-04  6.455305E-03  2.479405E-01  2.128844E-01
      2036 2010-08-20 02:49:40.00  7.983385E-05  1.504459E+02  1.504460E+02  4.207454E+08
                       (23,044,1)  1.524630E-04  6.460507E-03  2.478495E-01  2.128940E-01
      2037 2010-08-20 02:49:45.00  7.984222E-05  1.504459E+02  1.504460E+02  4.207454E+08
                       (23,044,1)  1.507956E-04  6.466708E-03  2.477934E-01  2.129096E-01
      2038 2010-08-20 02:49:50.00  7.985061E-05  1.504459E+02  1.504460E+02  4.207455E+08
                       (23,044,1)  1.492814E-04  6.473014E-03  2.477755E-01  2.129315E-01
      2039 2010-08-20 02:49:55.00  7.985896E-05  1.504459E+02  1.504460E+02  4.207455E+08
                       (23,044,1)  1.475254E-04  6.478356E-03  2.478466E-01  2.129572E-01
      2040 2010-08-20 02:50:00.00  7.986686E-05  1.504459E+02  1.504460E+02  4.207456E+08
                       (23,044,1)  1.455843E-04  6.482078E-03  2.479663E-01  2.129833E-01
 ** ROMS grid  1 recv data from SWAN grid  1
 == SWAN grid  1 sent wave data to ROMS grid  1
SWANtoROMS Min/Max DISBOT  (Wm-2):     0.000000E+00  2.567066E-03
SWANtoROMS Min/Max DISSURF (Wm-2):     0.000000E+00  5.585657E-03
SWANtoROMS Min/Max DISWCAP (Wm-2):     0.000000E+00  3.442185E-07
SWANtoROMS Min/Max HSIGN   (m):        0.000000E+00  4.548885E-01
SWANtoROMS Min/Max RTP     (s):        0.000000E+00  8.103282E+00
SWANtoROMS Min/Max TMBOT   (s):        0.000000E+00  8.520582E+00
SWANtoROMS Min/Max UBOT    (ms-1):     0.000000E+00  4.926659E-01
SWANtoROMS Min/Max DIR     (deg):      1.413716E+00  5.580220E+00
SWANtoROMS Min/Max WLEN    (m):        1.000000E+00  5.415397E+01
 ** ROMS grid  1 sent data to SWAN grid  1
 == SWAN grid  1 recv data from ROMS grid  1
ROMStoSWAN Min/Max DEPTH   (m):       -1.010000E+01  3.380000E+01
ROMStoSWAN Min/Max WLEV    (m):       -1.012758E-03  1.020000E+01
ROMStoSWAN Min/Max VELX    (ms-1):    -1.685606E-01  1.673014E-01
ROMStoSWAN Min/Max VELY    (ms-1):    -1.286542E-01  1.413954E-01
ROMStoSWAN Min/Max ZO      (m):        7.500000E-02  7.500000E-02
+time 20100820.030000   , step     18; iteration    1; sweep 1 grid   1
      WRT_HIS     - wrote history     fields (Index=1,1) in record = 0000018
      2041 2010-08-20 02:50:05.00  7.999117E-05  1.504459E+02  1.504460E+02  4.207457E+08
                       (23,044,1)  2.904095E-04  6.962846E-03  2.478338E-01  2.133549E-01
      2042 2010-08-20 02:50:10.00  8.012941E-05  1.504459E+02  1.504459E+02  4.207457E+08
                       (23,044,1)  1.258172E-04  6.957339E-03  2.567353E-01  2.135832E-01
      2043 2010-08-20 02:50:15.00  8.027055E-05  1.504458E+02  1.504459E+02  4.207458E+08
                       (23,044,1)  4.758626E-05  6.913792E-03  2.473035E-01  2.138086E-01
+time 20100820.030000   , step     18; iteration    1; sweep 2 grid   1
      2044 2010-08-20 02:50:20.00  8.039878E-05  1.504458E+02  1.504459E+02  4.207458E+08
                       (23,044,1)  3.618191E-05  6.848552E-03  2.466422E-01  2.139571E-01
      2045 2010-08-20 02:50:25.00  8.051764E-05  1.504458E+02  1.504459E+02  4.207459E+08
                       (23,044,1)  1.211743E-04  6.751981E-03  2.484307E-01  2.140222E-01
      2046 2010-08-20 02:50:30.00  8.063140E-05  1.504458E+02  1.504458E+02  4.207459E+08
                       (23,044,1)  2.010567E-04  6.646585E-03  2.533933E-01  2.140014E-01
      2047 2010-08-20 02:50:35.00  8.074041E-05  1.504457E+02  1.504458E+02  4.207460E+08
                       (23,044,1)  2.909441E-04  6.538101E-03  2.589362E-01  2.139042E-01
      2048 2010-08-20 02:50:40.00  8.084472E-05  1.504456E+02  1.504457E+02  4.207460E+08
                       (23,044,1)  3.861210E-04  6.441215E-03  2.644646E-01  2.137512E-01
+time 20100820.030000   , step     18; iteration    1; sweep 3 grid   1
      2049 2010-08-20 02:50:45.00  8.094602E-05  1.504455E+02  1.504456E+02  4.207461E+08
                       (23,044,1)  4.843863E-04  6.359691E-03  2.687271E-01  2.135705E-01
      2050 2010-08-20 02:50:50.00  8.104523E-05  1.504454E+02  1.504455E+02  4.207461E+08
                       (23,044,1)  5.802689E-04  6.297435E-03  2.711070E-01  2.133992E-01
      2051 2010-08-20 02:50:55.00  8.114041E-05  1.504453E+02  1.504454E+02  4.207462E+08
                       (23,044,1)  6.663907E-04  6.256951E-03  2.714274E-01  2.132760E-01
      2052 2010-08-20 02:51:00.00  8.122608E-05  1.504452E+02  1.504453E+02  4.207462E+08
                       (23,044,1)  7.385552E-04  6.235367E-03  2.699522E-01  2.132268E-01
+time 20100820.030000   , step     18; iteration    1; sweep 4 grid   1
      2053 2010-08-20 02:51:05.00  8.131791E-05  1.504450E+02  1.504451E+02  4.207463E+08
                       (23,044,1)  7.942351E-04  6.232551E-03  2.670709E-01  2.132578E-01
      2054 2010-08-20 02:51:10.00  8.141407E-05  1.504448E+02  1.504449E+02  4.207463E+08
                       (23,044,1)  8.355797E-04  6.241075E-03  2.633278E-01  2.133487E-01
      2055 2010-08-20 02:51:15.00  8.150164E-05  1.504447E+02  1.504448E+02  4.207464E+08
                       (23,044,1)  8.663428E-04  6.256932E-03  2.591232E-01  2.134627E-01
      2056 2010-08-20 02:51:20.00  8.158773E-05  1.504445E+02  1.504446E+02  4.207464E+08
                       (23,044,1)  8.920275E-04  6.272085E-03  2.548196E-01  2.135607E-01
      2057 2010-08-20 02:51:25.00  8.167097E-05  1.504443E+02  1.504444E+02  4.207464E+08
                       (23,048,1)  5.081254E-03  1.297483E-03  2.544234E-01  2.136228E-01
      2058 2010-08-20 02:51:30.00  8.174497E-05  1.504442E+02  1.504442E+02  4.207465E+08
                       (23,048,1)  5.085025E-03  1.335078E-03  2.534359E-01  2.136552E-01
      2059 2010-08-20 02:51:35.00  8.182578E-05  1.504440E+02  1.504441E+02  4.207466E+08
                       (23,048,1)  5.090235E-03  1.370653E-03  2.528515E-01  2.136845E-01
      2060 2010-08-20 02:51:40.00  8.191119E-05  1.504439E+02  1.504439E+02  4.207466E+08
                       (23,048,1)  5.093342E-03  1.399569E-03  2.528279E-01  2.137332E-01
      2061 2010-08-20 02:51:45.00  8.198867E-05  1.504437E+02  1.504438E+02  4.207467E+08
                       (23,048,1)  5.089248E-03  1.420686E-03  2.533411E-01  2.138078E-01
      2062 2010-08-20 02:51:50.00  8.206547E-05  1.504436E+02  1.504437E+02  4.207468E+08
                       (23,048,1)  5.077268E-03  1.432293E-03  2.541122E-01  2.138982E-01
      2063 2010-08-20 02:51:55.00  8.214040E-05  1.504435E+02  1.504436E+02  4.207470E+08
                       (23,048,1)  5.058564E-03  1.435847E-03  2.547790E-01  2.139974E-01
      2064 2010-08-20 02:52:00.00  8.221501E-05  1.504434E+02  1.504435E+02  4.207471E+08
                       (23,048,1)  5.034256E-03  1.432009E-03  2.550676E-01  2.141082E-01
      2065 2010-08-20 02:52:05.00  8.228901E-05  1.504434E+02  1.504434E+02  4.207473E+08
                       (23,048,1)  5.009102E-03  1.422424E-03  2.549562E-01  2.142428E-01
      2066 2010-08-20 02:52:10.00  8.236150E-05  1.504433E+02  1.504434E+02  4.207475E+08
                       (23,048,1)  4.987941E-03  1.408321E-03  2.546418E-01  2.144071E-01
      2067 2010-08-20 02:52:15.00  8.243342E-05  1.504432E+02  1.504433E+02  4.207476E+08
                       (23,048,1)  4.973392E-03  1.391307E-03  2.543640E-01  2.145964E-01
      2068 2010-08-20 02:52:20.00  8.249741E-05  1.504432E+02  1.504433E+02  4.207478E+08
                       (23,048,1)  4.965064E-03  1.374728E-03  2.542481E-01  2.147946E-01
      2069 2010-08-20 02:52:25.00  8.256720E-05  1.504432E+02  1.504433E+02  4.207481E+08
                       (23,048,1)  4.960919E-03  1.361918E-03  2.542410E-01  2.149846E-01
      2070 2010-08-20 02:52:30.00  8.264408E-05  1.504432E+02  1.504433E+02  4.207483E+08
                       (23,048,1)  4.958271E-03  1.357748E-03  2.541938E-01  2.151522E-01
      2071 2010-08-20 02:52:35.00  8.271322E-05  1.504432E+02  1.504433E+02  4.207486E+08
                       (23,048,1)  4.954955E-03  1.364926E-03  2.539373E-01  2.152939E-01
      2072 2010-08-20 02:52:40.00  8.278043E-05  1.504432E+02  1.504433E+02  4.207489E+08
                       (23,048,1)  4.949166E-03  1.385609E-03  2.533663E-01  2.154120E-01
      2073 2010-08-20 02:52:45.00  8.284714E-05  1.504432E+02  1.504433E+02  4.207491E+08
                       (23,048,1)  4.939970E-03  1.417977E-03  2.524458E-01  2.155182E-01
      2074 2010-08-20 02:52:50.00  8.291365E-05  1.504432E+02  1.504433E+02  4.207494E+08
                       (23,048,1)  4.927272E-03  1.458206E-03  2.512320E-01  2.156252E-01
      2075 2010-08-20 02:52:55.00  8.297844E-05  1.504432E+02  1.504433E+02  4.207497E+08
                       (23,048,1)  4.912152E-03  1.499898E-03  2.498644E-01  2.157420E-01
      2076 2010-08-20 02:53:00.00  8.304339E-05  1.504432E+02  1.504433E+02  4.207499E+08
                       (22,010,1)  6.837712E-03  7.874550E-04  2.487728E-01  2.158742E-01
      2077 2010-08-20 02:53:05.00  8.310086E-05  1.504432E+02  1.504433E+02  4.207501E+08
                       (22,010,1)  6.832333E-03  7.878560E-04  2.494740E-01  2.160198E-01
      2078 2010-08-20 02:53:10.00  8.316506E-05  1.504432E+02  1.504433E+02  4.207503E+08
                       (22,010,1)  6.828951E-03  7.790358E-04  2.501173E-01  2.161742E-01
      2079 2010-08-20 02:53:15.00  8.323633E-05  1.504432E+02  1.504432E+02  4.207505E+08
                       (22,010,1)  6.828007E-03  7.638817E-04  2.505682E-01  2.163283E-01
      2080 2010-08-20 02:53:20.00  8.330079E-05  1.504431E+02  1.504432E+02  4.207507E+08
                       (22,010,1)  6.829384E-03  7.471995E-04  2.507417E-01  2.164747E-01
      2081 2010-08-20 02:53:25.00  8.336441E-05  1.504431E+02  1.504432E+02  4.207509E+08
                       (22,010,1)  6.832561E-03  7.331370E-04  2.506162E-01  2.166051E-01
      2082 2010-08-20 02:53:30.00  8.342764E-05  1.504431E+02  1.504431E+02  4.207511E+08
                       (22,010,1)  6.836867E-03  7.256987E-04  2.502428E-01  2.167182E-01
      2083 2010-08-20 02:53:35.00  8.348295E-05  1.504430E+02  1.504431E+02  4.207512E+08
                       (22,010,1)  6.841618E-03  7.262011E-04  2.497328E-01  2.168154E-01
      2084 2010-08-20 02:53:40.00  8.354478E-05  1.504430E+02  1.504431E+02  4.207514E+08
                       (23,048,1)  4.876056E-03  1.388633E-03  2.508688E-01  2.169009E-01
      2085 2010-08-20 02:53:45.00  8.361407E-05  1.504429E+02  1.504430E+02  4.207515E+08
                       (23,048,1)  4.881873E-03  1.380446E-03  2.510292E-01  2.169816E-01
      2086 2010-08-20 02:53:50.00  8.367641E-05  1.504429E+02  1.504430E+02  4.207517E+08
                       (23,048,1)  4.888830E-03  1.389370E-03  2.508740E-01  2.170656E-01
      2087 2010-08-20 02:53:55.00  8.373692E-05  1.504428E+02  1.504429E+02  4.207518E+08
                       (23,048,1)  4.896559E-03  1.412203E-03  2.504529E-01  2.171597E-01
      2088 2010-08-20 02:54:00.00  8.379733E-05  1.504428E+02  1.504428E+02  4.207519E+08
                       (22,010,1)  6.854428E-03  7.947233E-04  2.488069E-01  2.172684E-01
      2089 2010-08-20 02:54:05.00  8.385787E-05  1.504427E+02  1.504428E+02  4.207521E+08
                       (22,010,1)  6.854606E-03  8.021670E-04  2.490728E-01  2.173933E-01
      2090 2010-08-20 02:54:10.00  8.391686E-05  1.504427E+02  1.504427E+02  4.207522E+08
                       (22,010,1)  6.855093E-03  8.031045E-04  2.493602E-01  2.175306E-01
      2091 2010-08-20 02:54:15.00  8.396839E-05  1.504426E+02  1.504427E+02  4.207524E+08
                       (22,010,1)  6.856585E-03  7.982936E-04  2.496168E-01  2.176772E-01
      2092 2010-08-20 02:54:20.00  8.402713E-05  1.504426E+02  1.504426E+02  4.207525E+08
                       (22,010,1)  6.859370E-03  7.896155E-04  2.498197E-01  2.178274E-01
      2093 2010-08-20 02:54:25.00  8.409157E-05  1.504425E+02  1.504426E+02  4.207526E+08
                       (22,010,1)  6.863179E-03  7.798982E-04  2.499574E-01  2.179707E-01
      2094 2010-08-20 02:54:30.00  8.414902E-05  1.504425E+02  1.504425E+02  4.207528E+08
                       (22,010,1)  6.867549E-03  7.724009E-04  2.500192E-01  2.180961E-01
      2095 2010-08-20 02:54:35.00  8.420637E-05  1.504424E+02  1.504425E+02  4.207529E+08
                       (22,010,1)  6.872369E-03  7.693700E-04  2.500039E-01  2.181906E-01
      2096 2010-08-20 02:54:40.00  8.426256E-05  1.504423E+02  1.504424E+02  4.207530E+08
                       (22,010,1)  6.877988E-03  7.723390E-04  2.499390E-01  2.182504E-01
      2097 2010-08-20 02:54:45.00  8.431881E-05  1.504423E+02  1.504424E+02  4.207532E+08
                       (22,010,1)  6.884773E-03  7.807479E-04  2.498777E-01  2.182812E-01
      2098 2010-08-20 02:54:50.00  8.437530E-05  1.504422E+02  1.504423E+02  4.207533E+08
                       (22,010,1)  6.892562E-03  7.930784E-04  2.498654E-01  2.183025E-01
      2099 2010-08-20 02:54:55.00  8.442307E-05  1.504422E+02  1.504423E+02  4.207535E+08
                       (22,010,1)  6.900528E-03  8.064409E-04  2.499083E-01  2.183341E-01
      2100 2010-08-20 02:55:00.00  8.447833E-05  1.504422E+02  1.504422E+02  4.207536E+08
                       (22,010,1)  6.907489E-03  8.179024E-04  2.499674E-01  2.183928E-01
      2101 2010-08-20 02:55:05.00  8.454108E-05  1.504421E+02  1.504422E+02  4.207538E+08
                       (22,010,1)  6.912363E-03  8.248971E-04  2.499863E-01  2.184827E-01
      2102 2010-08-20 02:55:10.00  8.459570E-05  1.504421E+02  1.504422E+02  4.207539E+08
                       (22,010,1)  6.914476E-03  8.260315E-04  2.499248E-01  2.185940E-01
      2103 2010-08-20 02:55:15.00  8.465034E-05  1.504420E+02  1.504421E+02  4.207541E+08
                       (22,010,1)  6.913691E-03  8.214363E-04  2.497797E-01  2.187139E-01
      2104 2010-08-20 02:55:20.00  8.470508E-05  1.504420E+02  1.504421E+02  4.207542E+08
                       (22,010,1)  6.910413E-03  8.125473E-04  2.495885E-01  2.188291E-01
      2105 2010-08-20 02:55:25.00  8.475861E-05  1.504419E+02  1.504420E+02  4.207543E+08
                       (22,010,1)  6.905476E-03  8.018329E-04  2.494142E-01  2.189316E-01
      2106 2010-08-20 02:55:30.00  8.481244E-05  1.504419E+02  1.504420E+02  4.207545E+08
                       (22,010,1)  6.899902E-03  7.918338E-04  2.493249E-01  2.190185E-01
