!  Floats Input Parameters.
!
!svn $Id$
!========================================================= Hernan G. Arango ===
!  Copyright (c) 2002-2014 The ROMS/TOMS Group                                !
!    Licensed under a MIT/X style license                                     !
!    See License_ROMS.txt                                                     !
!==============================================================================
!                                                                             !
! Input parameters can be entered in ANY order, provided that the parameter   !
! KEYWORD (usually, upper case) is typed correctly followed by "="  or "=="   !
! symbols. Any comment lines are allowed and must begin with an exclamation   !
! mark (!) in column one.  Comments may  appear to the right of a parameter   !
! specification to improve documentation.  Comments will be ignored  during   !
! reading.  Blank lines are also allowed and ignored. Continuation lines in   !
! a parameter specification are allowed and must be preceded by a backslash   !
! (\).  In some instances, more than one value is required for a parameter.   !
! If fewer values are provided, the  last value  is assigned for the entire   !
! parameter array.  The multiplication symbol (*),  without blank spaces in   !
! between, is allowed for a parameter specification.  For example, in a two   !
! grids nested application:                                                   !
!                                                                             !
!    AKT_BAK == 2*1.0d-6  2*5.0d-6              ! m2/s                        !
!                                                                             !
! indicates that the first two entries of array AKT_BAK,  in fortran column-  !
! major order, will have the same value of "1.0d-6" for grid 1,  whereas the  !
! next two entries will have the same value of "5.0d-6" for grid 2.           !
!                                                                             !
! In multiple levels of nesting and/or multiple connected domains  step-ups,  !
! "Ngrids" entries are expected for some of these parameters.  In such case,  !
! the order of the entries for a parameter is extremely important.  It  must  !
! follow the same order (1:Ngrids) as in the state variable declaration. The  !
! USER may follow the above guidelines for specifying his/her values.  These  !
! parameters are marked by "==" plural symbol after the KEYWORD.              !
!                                                                             !
!==============================================================================
!
! Switch to control the computation of floats trajectories within nested
! and/or multiple connected grids, [1:Ngrids].
!
     Lfloats == T

! Switch to control the printing of floats positions to standard output
! file, [1:Ngrids].
!
      Fprint == T

! Flag indicating re-start from previous solution. If FRREC = 0, a new
! NetCDF output file is created.

       FRREC == 0

! If applicable, input script file name containing biological floats behavior
! model parameters.

     FBIONAM =  behavior_larvae.in

! Number of floats to release in each nested grid.  These values are
! essential because the FLOATS structure in "mod_floats" is dynamically
! allocated using these values, [1:Ngrids].

     NFLOATS == 11522

! Initial floats locations for all grids:
!
!   G      Nested grid number
!   C      Initial horizontal coordinate type (0: grid units, 1: spherical)
!   T      Float trajectory type (1: Lagrangian, 2: isobaric, 3: Geopotential)
!   N      Number floats to be released at (Fx0,Fy0,Fz0)
!   Ft0    Float release time (days) after model initialization
!   Fx0    Initial float X-location (grid units or longitude)
!   Fy0    Initial float Y-location (grid units or latitude)
!   Fz0    Initial float Z-location (grid units or depth)
!   Fdt    Float cluster release time interval (days)
!   Fdx    Float cluster X-distribution parameter
!   Fdy    Float cluster Y-distribution parameter
!   Fdz    Float cluster Z-distribution parameter

POS = G, C, T, N,   Ft0,    Fx0,    Fy0,    Fz0,    Fdt,    Fdx,    Fdy,   Fdz

1 0 1 1 0.999884 68.000000 2.000000 0.000000 0.000000 0.000000 0.000000 0.000000
1 0 1 1 0.999884 68.000000 3.000000 0.000000 0.000000 0.000000 0.000000 0.000000
1 0 1 1 0.999884 70.000000 3.000000 0.000000 0.000000 0.000000 0.000000 0.000000
1 0 1 1 0.999884 68.000000 4.000000 0.000000 0.000000 0.000000 0.000000 0.000000
1 0 1 1 0.999884 69.000000 4.000000 0.000000 0.000000 0.000000 0.000000 0.000000
1 0 1 1 0.999884 70.000000 4.000000 0.000000 0.000000 0.000000 0.000000 0.000000
1 0 1 1 0.999884 71.000000 4.000000 0.000000 0.000000 0.000000 0.000000 0.000000
1 0 1 1 0.999884 72.000000 4.000000 0.000000 0.000000 0.000000 0.000000 0.000000
1 0 1 1 0.999884 67.000000 5.000000 0.000000 0.000000 0.000000 0.000000 0.000000
1 0 1 1 0.999884 68.000000 5.000000 0.000000 0.000000 0.000000 0.000000 0.000000
1 0 1 1 0.999884 69.000000 5.000000 0.000000 0.000000 0.000000 0.000000 0.000000
1 0 1 1 0.999884 70.000000 5.000000 0.000000 0.000000 0.000000 0.000000 0.000000
1 0 1 1 0.999884 71.000000 5.000000 0.000000 0.000000 0.000000 0.000000 0.000000
1 0 1 1 0.999884 72.000000 5.000000 0.000000 0.000000 0.000000 0.000000 0.000000
1 0 1 1 0.999884 67.000000 6.000000 0.000000 0.000000 0.000000 0.000000 0.000000
1 0 1 1 0.999884 68.000000 6.000000 0.000000 0.000000 0.000000 0.000000 0.000000
1 0 1 1 0.999884 69.000000 6.000000 0.000000 0.000000 0.000000 0.000000 0.000000
1 0 1 1 0.999884 70.000000 6.000000 0.000000 0.000000 0.000000 0.000000 0.000000
1 0 1 1 0.999884 71.000000 6.000000 0.000000 0.000000 0.000000 0.000000 0.000000
1 0 1 1 0.999884 72.000000 6.000000 0.000000 0.000000 0.000000 0.000000 0.000000
1 0 1 1 0.999884 73.000000 6.000000 0.000000 0.000000 0.000000 0.000000 0.000000
1 0 1 1 0.999884 67.000000 7.000000 0.000000 0.000000 0.000000 0.000000 0.000000
1 0 1 1 0.999884 68.000000 7.000000 0.000000 0.000000 0.000000 0.000000 0.000000
1 0 1 1 0.999884 69.000000 7.000000 0.000000 0.000000 0.000000 0.000000 0.000000
1 0 1 1 0.999884 70.000000 7.000000 0.000000 0.000000 0.000000 0.000000 0.000000
1 0 1 1 0.999884 71.000000 7.000000 0.000000 0.000000 0.000000 0.000000 0.000000
1 0 1 1 0.999884 72.000000 7.000000 0.000000 0.000000 0.000000 0.000000 0.000000
1 0 1 1 0.999884 73.000000 7.000000 0.000000 0.000000 0.000000 0.000000 0.000000
1 0 1 1 0.999884 74.000000 7.000000 0.000000 0.000000 0.000000 0.000000 0.000000
1 0 1 1 0.999884 75.000000 7.000000 0.000000 0.000000 0.000000 0.000000 0.000000
1 0 1 1 0.999884 67.000000 8.000000 0.000000 0.000000 0.000000 0.000000 0.000000
1 0 1 1 0.999884 68.000000 8.000000 0.000000 0.000000 0.000000 0.000000 0.000000
1 0 1 1 0.999884 69.000000 8.000000 0.000000 0.000000 0.000000 0.000000 0.000000
1 0 1 1 0.999884 70.000000 8.000000 0.000000 0.000000 0.000000 0.000000 0.000000
1 0 1 1 0.999884 71.000000 8.000000 0.000000 0.000000 0.000000 0.000000 0.000000
1 0 1 1 0.999884 72.000000 8.000000 0.000000 0.000000 0.000000 0.000000 0.000000
1 0 1 1 0.999884 73.000000 8.000000 0.000000 0.000000 0.000000 0.000000 0.000000
1 0 1 1 0.999884 74.000000 8.000000 0.000000 0.000000 0.000000 0.000000 0.000000
1 0 1 1 0.999884 75.000000 8.000000 0.000000 0.000000 0.000000 0.000000 0.000000
1 0 1 1 0.999884 76.000000 8.000000 0.000000 0.000000 0.000000 0.000000 0.000000
1 0 1 1 0.999884 68.000000 9.000000 0.000000 0.000000 0.000000 0.000000 0.000000
1 0 1 1 0.999884 69.000000 9.000000 0.000000 0.000000 0.000000 0.000000 0.000000
1 0 1 1 0.999884 70.000000 9.000000 0.000000 0.000000 0.000000 0.000000 0.000000
1 0 1 1 0.999884 71.000000 9.000000 0.000000 0.000000 0.000000 0.000000 0.000000
1 0 1 1 0.999884 72.000000 9.000000 0.000000 0.000000 0.000000 0.000000 0.000000
1 0 1 1 0.999884 73.000000 9.000000 0.000000 0.000000 0.000000 0.000000 0.000000
1 0 1 1 0.999884 74.000000 9.000000 0.000000 0.000000 0.000000 0.000000 0.000000
1 0 1 1 0.999884 75.000000 9.000000 0.000000 0.000000 0.000000 0.000000 0.000000
1 0 1 1 0.999884 76.000000 9.000000 0.000000 0.000000 0.000000 0.000000 0.000000
1 0 1 1 0.999884 66.000000 10.000000 0.000000 0.000000 0.000000 0.000000 0.000000
1 0 1 1 0.999884 68.000000 10.000000 0.000000 0.000000 0.000000 0.000000 0.000000
1 0 1 1 0.999884 69.000000 10.000000 0.000000 0.000000 0.000000 0.000000 0.000000
1 0 1 1 0.999884 70.000000 10.000000 0.000000 0.000000 0.000000 0.000000 0.000000
1 0 1 1 0.999884 71.000000 10.000000 0.000000 0.000000 0.000000 0.000000 0.000000
1 0 1 1 0.999884 72.000000 10.000000 0.000000 0.000000 0.000000 0.000000 0.000000
1 0 1 1 0.999884 73.000000 10.000000 0.000000 0.000000 0.000000 0.000000 0.000000
1 0 1 1 0.999884 74.000000 10.000000 0.000000 0.000000 0.000000 0.000000 0.000000
1 0 1 1 0.999884 75.000000 10.000000 0.000000 0.000000 0.000000 0.000000 0.000000
1 0 1 1 0.999884 76.000000 10.000000 0.000000 0.000000 0.000000 0.000000 0.000000
1 0 1 1 0.999884 77.000000 10.000000 0.000000 0.000000 0.000000 0.000000 0.000000
1 0 1 1 0.999884 66.000000 11.000000 0.000000 0.000000 0.000000 0.000000 0.000000
1 0 1 1 0.999884 68.000000 11.000000 0.000000 0.000000 0.000000 0.000000 0.000000
1 0 1 1 0.999884 69.000000 11.000000 0.000000 0.000000 0.000000 0.000000 0.000000
1 0 1 1 0.999884 70.000000 11.000000 0.000000 0.000000 0.000000 0.000000 0.000000
1 0 1 1 0.999884 71.000000 11.000000 0.000000 0.000000 0.000000 0.000000 0.000000
1 0 1 1 0.999884 72.000000 11.000000 0.000000 0.000000 0.000000 0.000000 0.000000
1 0 1 1 0.999884 73.000000 11.000000 0.000000 0.000000 0.000000 0.000000 0.000000
1 0 1 1 0.999884 74.000000 11.000000 0.000000 0.000000 0.000000 0.000000 0.000000
1 0 1 1 0.999884 75.000000 11.000000 0.000000 0.000000 0.000000 0.000000 0.000000
1 0 1 1 0.999884 76.000000 11.000000 0.000000 0.000000 0.000000 0.000000 0.000000
1 0 1 1 0.999884 77.000000 11.000000 0.000000 0.000000 0.000000 0.000000 0.000000
1 0 1 1 0.999884 66.000000 12.000000 0.000000 0.000000 0.000000 0.000000 0.000000
1 0 1 1 0.999884 68.000000 12.000000 0.000000 0.000000 0.000000 0.000000 0.000000
1 0 1 1 0.999884 69.000000 12.000000 0.000000 0.000000 0.000000 0.000000 0.000000
1 0 1 1 0.999884 70.000000 12.000000 0.000000 0.000000 0.000000 0.000000 0.000000
1 0 1 1 0.999884 71.000000 12.000000 0.000000 0.000000 0.000000 0.000000 0.000000
1 0 1 1 0.999884 72.000000 12.000000 0.000000 0.000000 0.000000 0.000000 0.000000
1 0 1 1 0.999884 73.000000 12.000000 0.000000 0.000000 0.000000 0.000000 0.000000
1 0 1 1 0.999884 74.000000 12.000000 0.000000 0.000000 0.000000 0.000000 0.000000
1 0 1 1 0.999884 75.000000 12.000000 0.000000 0.000000 0.000000 0.000000 0.000000
1 0 1 1 0.999884 76.000000 12.000000 0.000000 0.000000 0.000000 0.000000 0.000000
1 0 1 1 0.999884 77.000000 12.000000 0.000000 0.000000 0.000000 0.000000 0.000000
1 0 1 1 0.999884 78.000000 12.000000 0.000000 0.000000 0.000000 0.000000 0.000000
1 0 1 1 0.999884 66.000000 13.000000 0.000000 0.000000 0.000000 0.000000 0.000000
1 0 1 1 0.999884 68.000000 13.000000 0.000000 0.000000 0.000000 0.000000 0.000000
1 0 1 1 0.999884 69.000000 13.000000 0.000000 0.000000 0.000000 0.000000 0.000000
1 0 1 1 0.999884 70.000000 13.000000 0.000000 0.000000 0.000000 0.000000 0.000000
1 0 1 1 0.999884 71.000000 13.000000 0.000000 0.000000 0.000000 0.000000 0.000000
1 0 1 1 0.999884 72.000000 13.000000 0.000000 0.000000 0.000000 0.000000 0.000000
1 0 1 1 0.999884 73.000000 13.000000 0.000000 0.000000 0.000000 0.000000 0.000000
1 0 1 1 0.999884 74.000000 13.000000 0.000000 0.000000 0.000000 0.000000 0.000000
1 0 1 1 0.999884 75.000000 13.000000 0.000000 0.000000 0.000000 0.000000 0.000000
1 0 1 1 0.999884 76.000000 13.000000 0.000000 0.000000 0.000000 0.000000 0.000000
1 0 1 1 0.999884 77.000000 13.000000 0.000000 0.000000 0.000000 0.000000 0.000000
1 0 1 1 0.999884 78.000000 13.000000 0.000000 0.000000 0.000000 0.000000 0.000000
1 0 1 1 0.999884 66.000000 14.000000 0.000000 0.000000 0.000000 0.000000 0.000000
1 0 1 1 0.999884 68.000000 14.000000 0.000000 0.000000 0.000000 0.000000 0.000000
1 0 1 1 0.999884 69.000000 14.000000 0.000000 0.000000 0.000000 0.000000 0.000000
1 0 1 1 0.999884 70.000000 14.000000 0.000000 0.000000 0.000000 0.000000 0.000000
1 0 1 1 0.999884 71.000000 14.000000 0.000000 0.000000 0.000000 0.000000 0.000000
1 0 1 1 0.999884 72.000000 14.000000 0.000000 0.000000 0.000000 0.000000 0.000000
1 0 1 1 0.999884 73.000000 14.000000 0.000000 0.000000 0.000000 0.000000 0.000000
1 0 1 1 0.999884 74.000000 14.000000 0.000000 0.000000 0.000000 0.000000 0.000000
1 0 1 1 0.999884 75.000000 14.000000 0.000000 0.000000 0.000000 0.000000 0.000000
1 0 1 1 0.999884 76.000000 14.000000 0.000000 0.000000 0.000000 0.000000 0.000000
1 0 1 1 0.999884 77.000000 14.000000 0.000000 0.000000 0.000000 0.000000 0.000000
1 0 1 1 0.999884 78.000000 14.000000 0.000000 0.000000 0.000000 0.000000 0.000000
1 0 1 1 0.999884 66.000000 15.000000 0.000000 0.000000 0.000000 0.000000 0.000000
1 0 1 1 0.999884 68.000000 15.000000 0.000000 0.000000 0.000000 0.000000 0.000000
1 0 1 1 0.999884 69.000000 15.000000 0.000000 0.000000 0.000000 0.000000 0.000000
1 0 1 1 0.999884 70.000000 15.000000 0.000000 0.000000 0.000000 0.000000 0.000000
1 0 1 1 0.999884 71.000000 15.000000 0.000000 0.000000 0.000000 0.000000 0.000000
1 0 1 1 0.999884 72.000000 15.000000 0.000000 0.000000 0.000000 0.000000 0.000000
1 0 1 1 0.999884 73.000000 15.000000 0.000000 0.000000 0.000000 0.000000 0.000000
1 0 1 1 0.999884 74.000000 15.000000 0.000000 0.000000 0.000000 0.000000 0.000000
1 0 1 1 0.999884 75.000000 15.000000 0.000000 0.000000 0.000000 0.000000 0.000000
1 0 1 1 0.999884 76.000000 15.000000 0.000000 0.000000 0.000000 0.000000 0.000000
1 0 1 1 0.999884 77.000000 15.000000 0.000000 0.000000 0.000000 0.000000 0.000000
1 0 1 1 0.999884 78.000000 15.000000 0.000000 0.000000 0.000000 0.000000 0.000000
1 0 1 1 0.999884 68.000000 16.000000 0.000000 0.000000 0.000000 0.000000 0.000000
1 0 1 1 0.999884 69.000000 16.000000 0.000000 0.000000 0.000000 0.000000 0.000000
1 0 1 1 0.999884 70.000000 16.000000 0.000000 0.000000 0.000000 0.000000 0.000000
1 0 1 1 0.999884 71.000000 16.000000 0.000000 0.000000 0.000000 0.000000 0.000000
1 0 1 1 0.999884 72.000000 16.000000 0.000000 0.000000 0.000000 0.000000 0.000000
1 0 1 1 0.999884 73.000000 16.000000 0.000000 0.000000 0.000000 0.000000 0.000000
1 0 1 1 0.999884 74.000000 16.000000 0.000000 0.000000 0.000000 0.000000 0.000000
1 0 1 1 0.999884 75.000000 16.000000 0.000000 0.000000 0.000000 0.000000 0.000000
1 0 1 1 0.999884 76.000000 16.000000 0.000000 0.000000 0.000000 0.000000 0.000000
1 0 1 1 0.999884 77.000000 16.000000 0.000000 0.000000 0.000000 0.000000 0.000000
1 0 1 1 0.999884 78.000000 16.000000 0.000000 0.000000 0.000000 0.000000 0.000000
1 0 1 1 0.999884 67.000000 17.000000 0.000000 0.000000 0.000000 0.000000 0.000000
1 0 1 1 0.999884 68.000000 17.000000 0.000000 0.000000 0.000000 0.000000 0.000000
1 0 1 1 0.999884 69.000000 17.000000 0.000000 0.000000 0.000000 0.000000 0.000000
1 0 1 1 0.999884 70.000000 17.000000 0.000000 0.000000 0.000000 0.000000 0.000000
1 0 1 1 0.999884 71.000000 17.000000 0.000000 0.000000 0.000000 0.000000 0.000000
1 0 1 1 0.999884 72.000000 17.000000 0.000000 0.000000 0.000000 0.000000 0.000000
1 0 1 1 0.999884 73.000000 17.000000 0.000000 0.000000 0.000000 0.000000 0.000000
1 0 1 1 0.999884 74.000000 17.000000 0.000000 0.000000 0.000000 0.000000 0.000000
1 0 1 1 0.999884 75.000000 17.000000 0.000000 0.000000 0.000000 0.000000 0.000000
1 0 1 1 0.999884 76.000000 17.000000 0.000000 0.000000 0.000000 0.000000 0.000000
1 0 1 1 0.999884 77.000000 17.000000 0.000000 0.000000 0.000000 0.000000 0.000000
1 0 1 1 0.999884 78.000000 17.000000 0.000000 0.000000 0.000000 0.000000 0.000000
1 0 1 1 0.999884 67.000000 18.000000 0.000000 0.000000 0.000000 0.000000 0.000000
1 0 1 1 0.999884 68.000000 18.000000 0.000000 0.000000 0.000000 0.000000 0.000000
1 0 1 1 0.999884 69.000000 18.000000 0.000000 0.000000 0.000000 0.000000 0.000000
1 0 1 1 0.999884 70.000000 18.000000 0.000000 0.000000 0.000000 0.000000 0.000000
1 0 1 1 0.999884 71.000000 18.000000 0.000000 0.000000 0.000000 0.000000 0.000000
1 0 1 1 0.999884 72.000000 18.000000 0.000000 0.000000 0.000000 0.000000 0.000000
1 0 1 1 0.999884 73.000000 18.000000 0.000000 0.000000 0.000000 0.000000 0.000000
1 0 1 1 0.999884 74.000000 18.000000 0.000000 0.000000 0.000000 0.000000 0.000000
1 0 1 1 0.999884 75.000000 18.000000 0.000000 0.000000 0.000000 0.000000 0.000000
1 0 1 1 0.999884 76.000000 18.000000 0.000000 0.000000 0.000000 0.000000 0.000000
1 0 1 1 0.999884 77.000000 18.000000 0.000000 0.000000 0.000000 0.000000 0.000000
1 0 1 1 0.999884 78.000000 18.000000 0.000000 0.000000 0.000000 0.000000 0.000000
1 0 1 1 0.999884 67.000000 19.000000 0.000000 0.000000 0.000000 0.000000 0.000000
1 0 1 1 0.999884 68.000000 19.000000 0.000000 0.000000 0.000000 0.000000 0.000000
1 0 1 1 0.999884 69.000000 19.000000 0.000000 0.000000 0.000000 0.000000 0.000000
1 0 1 1 0.999884 70.000000 19.000000 0.000000 0.000000 0.000000 0.000000 0.000000
1 0 1 1 0.999884 71.000000 19.000000 0.000000 0.000000 0.000000 0.000000 0.000000
1 0 1 1 0.999884 72.000000 19.000000 0.000000 0.000000 0.000000 0.000000 0.000000
1 0 1 1 0.999884 73.000000 19.000000 0.000000 0.000000 0.000000 0.000000 0.000000
1 0 1 1 0.999884 74.000000 19.000000 0.000000 0.000000 0.000000 0.000000 0.000000
1 0 1 1 0.999884 75.000000 19.000000 0.000000 0.000000 0.000000 0.000000 0.000000
1 0 1 1 0.999884 76.000000 19.000000 0.000000 0.000000 0.000000 0.000000 0.000000
1 0 1 1 0.999884 77.000000 19.000000 0.000000 0.000000 0.000000 0.000000 0.000000
1 0 1 1 0.999884 78.000000 19.000000 0.000000 0.000000 0.000000 0.000000 0.000000
1 0 1 1 0.999884 65.000000 20.000000 0.000000 0.000000 0.000000 0.000000 0.000000
1 0 1 1 0.999884 67.000000 20.000000 0.000000 0.000000 0.000000 0.000000 0.000000
1 0 1 1 0.999884 68.000000 20.000000 0.000000 0.000000 0.000000 0.000000 0.000000
1 0 1 1 0.999884 69.000000 20.000000 0.000000 0.000000 0.000000 0.000000 0.000000
1 0 1 1 0.999884 70.000000 20.000000 0.000000 0.000000 0.000000 0.000000 0.000000
1 0 1 1 0.999884 71.000000 20.000000 0.000000 0.000000 0.000000 0.000000 0.000000
1 0 1 1 0.999884 72.000000 20.000000 0.000000 0.000000 0.000000 0.000000 0.000000
1 0 1 1 0.999884 73.000000 20.000000 0.000000 0.000000 0.000000 0.000000 0.000000
1 0 1 1 0.999884 74.000000 20.000000 0.000000 0.000000 0.000000 0.000000 0.000000
1 0 1 1 0.999884 75.000000 20.000000 0.000000 0.000000 0.000000 0.000000 0.000000
1 0 1 1 0.999884 76.000000 20.000000 0.000000 0.000000 0.000000 0.000000 0.000000
1 0 1 1 0.999884 77.000000 20.000000 0.000000 0.000000 0.000000 0.000000 0.000000
1 0 1 1 0.999884 78.000000 20.000000 0.000000 0.000000 0.000000 0.000000 0.000000
1 0 1 1 0.999884 65.000000 21.000000 0.000000 0.000000 0.000000 0.000000 0.000000
1 0 1 1 0.999884 67.000000 21.000000 0.000000 0.000000 0.000000 0.000000 0.000000
1 0 1 1 0.999884 68.000000 21.000000 0.000000 0.000000 0.000000 0.000000 0.000000
1 0 1 1 0.999884 69.000000 21.000000 0.000000 0.000000 0.000000 0.000000 0.000000
1 0 1 1 0.999884 70.000000 21.000000 0.000000 0.000000 0.000000 0.000000 0.000000
1 0 1 1 0.999884 71.000000 21.000000 0.000000 0.000000 0.000000 0.000000 0.000000
1 0 1 1 0.999884 72.000000 21.000000 0.000000 0.000000 0.000000 0.000000 0.000000
1 0 1 1 0.999884 73.000000 21.000000 0.000000 0.000000 0.000000 0.000000 0.000000
1 0 1 1 0.999884 74.000000 21.000000 0.000000 0.000000 0.000000 0.000000 0.000000
1 0 1 1 0.999884 75.000000 21.000000 0.000000 0.000000 0.000000 0.000000 0.000000
1 0 1 1 0.999884 76.000000 21.000000 0.000000 0.000000 0.000000 0.000000 0.000000
1 0 1 1 0.999884 77.000000 21.000000 0.000000 0.000000 0.000000 0.000000 0.000000
1 0 1 1 0.999884 78.000000 21.000000 0.000000 0.000000 0.000000 0.000000 0.000000
1 0 1 1 0.999884 64.000000 22.000000 0.000000 0.000000 0.000000 0.000000 0.000000
1 0 1 1 0.999884 65.000000 22.000000 0.000000 0.000000 0.000000 0.000000 0.000000
1 0 1 1 0.999884 67.000000 22.000000 0.000000 0.000000 0.000000 0.000000 0.000000
1 0 1 1 0.999884 68.000000 22.000000 0.000000 0.000000 0.000000 0.000000 0.000000
1 0 1 1 0.999884 69.000000 22.000000 0.000000 0.000000 0.000000 0.000000 0.000000
1 0 1 1 0.999884 70.000000 22.000000 0.000000 0.000000 0.000000 0.000000 0.000000
1 0 1 1 0.999884 71.000000 22.000000 0.000000 0.000000 0.000000 0.000000 0.000000
1 0 1 1 0.999884 72.000000 22.000000 0.000000 0.000000 0.000000 0.000000 0.000000
1 0 1 1 0.999884 73.000000 22.000000 0.000000 0.000000 0.000000 0.000000 0.000000
1 0 1 1 0.999884 74.000000 22.000000 0.000000 0.000000 0.000000 0.000000 0.000000
1 0 1 1 0.999884 75.000000 22.000000 0.000000 0.000000 0.000000 0.000000 0.000000
1 0 1 1 0.999884 76.000000 22.000000 0.000000 0.000000 0.000000 0.000000 0.000000
1 0 1 1 0.999884 77.000000 22.000000 0.000000 0.000000 0.000000 0.000000 0.000000
1 0 1 1 0.999884 64.000000 23.000000 0.000000 0.000000 0.000000 0.000000 0.000000
1 0 1 1 0.999884 65.000000 23.000000 0.000000 0.000000 0.000000 0.000000 0.000000
1 0 1 1 0.999884 67.000000 23.000000 0.000000 0.000000 0.000000 0.000000 0.000000
1 0 1 1 0.999884 68.000000 23.000000 0.000000 0.000000 0.000000 0.000000 0.000000
1 0 1 1 0.999884 69.000000 23.000000 0.000000 0.000000 0.000000 0.000000 0.000000
1 0 1 1 0.999884 70.000000 23.000000 0.000000 0.000000 0.000000 0.000000 0.000000
1 0 1 1 0.999884 71.000000 23.000000 0.000000 0.000000 0.000000 0.000000 0.000000
1 0 1 1 0.999884 72.000000 23.000000 0.000000 0.000000 0.000000 0.000000 0.000000
1 0 1 1 0.999884 73.000000 23.000000 0.000000 0.000000 0.000000 0.000000 0.000000
1 0 1 1 0.999884 74.000000 23.000000 0.000000 0.000000 0.000000 0.000000 0.000000
1 0 1 1 0.999884 75.000000 23.000000 0.000000 0.000000 0.000000 0.000000 0.000000
1 0 1 1 0.999884 76.000000 23.000000 0.000000 0.000000 0.000000 0.000000 0.000000
1 0 1 1 0.999884 77.000000 23.000000 0.000000 0.000000 0.000000 0.000000 0.000000
1 0 1 1 0.999884 64.000000 24.000000 0.000000 0.000000 0.000000 0.000000 0.000000
1 0 1 1 0.999884 65.000000 24.000000 0.000000 0.000000 0.000000 0.000000 0.000000
1 0 1 1 0.999884 67.000000 24.000000 0.000000 0.000000 0.000000 0.000000 0.000000
1 0 1 1 0.999884 68.000000 24.000000 0.000000 0.000000 0.000000 0.000000 0.000000
1 0 1 1 0.999884 69.000000 24.000000 0.000000 0.000000 0.000000 0.000000 0.000000
1 0 1 1 0.999884 70.000000 24.000000 0.000000 0.000000 0.000000 0.000000 0.000000
1 0 1 1 0.999884 71.000000 24.000000 0.000000 0.000000 0.000000 0.000000 0.000000
1 0 1 1 0.999884 72.000000 24.000000 0.000000 0.000000 0.000000 0.000000 0.000000
1 0 1 1 0.999884 73.000000 24.000000 0.000000 0.000000 0.000000 0.000000 0.000000
1 0 1 1 0.999884 74.000000 24.000000 0.000000 0.000000 0.000000 0.000000 0.000000
1 0 1 1 0.999884 75.000000 24.000000 0.000000 0.000000 0.000000 0.000000 0.000000
1 0 1 1 0.999884 76.000000 24.000000 0.000000 0.000000 0.000000 0.000000 0.000000
1 0 1 1 0.999884 77.000000 24.000000 0.000000 0.000000 0.000000 0.000000 0.000000
1 0 1 1 0.999884 78.000000 24.000000 0.000000 0.000000 0.000000 0.000000 0.000000
1 0 1 1 0.999884 64.000000 25.000000 0.000000 0.000000 0.000000 0.000000 0.000000
1 0 1 1 0.999884 65.000000 25.000000 0.000000 0.000000 0.000000 0.000000 0.000000
1 0 1 1 0.999884 67.000000 25.000000 0.000000 0.000000 0.000000 0.000000 0.000000
1 0 1 1 0.999884 68.000000 25.000000 0.000000 0.000000 0.000000 0.000000 0.000000
1 0 1 1 0.999884 69.000000 25.000000 0.000000 0.000000 0.000000 0.000000 0.000000
1 0 1 1 0.999884 70.000000 25.000000 0.000000 0.000000 0.000000 0.000000 0.000000
1 0 1 1 0.999884 71.000000 25.000000 0.000000 0.000000 0.000000 0.000000 0.000000
1 0 1 1 0.999884 72.000000 25.000000 0.000000 0.000000 0.000000 0.000000 0.000000
1 0 1 1 0.999884 73.000000 25.000000 0.000000 0.000000 0.000000 0.000000 0.000000
1 0 1 1 0.999884 74.000000 25.000000 0.000000 0.000000 0.000000 0.000000 0.000000
1 0 1 1 0.999884 75.000000 25.000000 0.000000 0.000000 0.000000 0.000000 0.000000
1 0 1 1 0.999884 76.000000 25.000000 0.000000 0.000000 0.000000 0.000000 0.000000
1 0 1 1 0.999884 77.000000 25.000000 0.000000 0.000000 0.000000 0.000000 0.000000
1 0 1 1 0.999884 78.000000 25.000000 0.000000 0.000000 0.000000 0.000000 0.000000
1 0 1 1 0.999884 79.000000 25.000000 0.000000 0.000000 0.000000 0.000000 0.000000
1 0 1 1 0.999884 63.000000 26.000000 0.000000 0.000000 0.000000 0.000000 0.000000
1 0 1 1 0.999884 64.000000 26.000000 0.000000 0.000000 0.000000 0.000000 0.000000
1 0 1 1 0.999884 65.000000 26.000000 0.000000 0.000000 0.000000 0.000000 0.000000
1 0 1 1 0.999884 67.000000 26.000000 0.000000 0.000000 0.000000 0.000000 0.000000
1 0 1 1 0.999884 68.000000 26.000000 0.000000 0.000000 0.000000 0.000000 0.000000
1 0 1 1 0.999884 69.000000 26.000000 0.000000 0.000000 0.000000 0.000000 0.000000
1 0 1 1 0.999884 70.000000 26.000000 0.000000 0.000000 0.000000 0.000000 0.000000
1 0 1 1 0.999884 71.000000 26.000000 0.000000 0.000000 0.000000 0.000000 0.000000
1 0 1 1 0.999884 72.000000 26.000000 0.000000 0.000000 0.000000 0.000000 0.000000
1 0 1 1 0.999884 73.000000 26.000000 0.000000 0.000000 0.000000 0.000000 0.000000
1 0 1 1 0.999884 74.000000 26.000000 0.000000 0.000000 0.000000 0.000000 0.000000
1 0 1 1 0.999884 75.000000 26.000000 0.000000 0.000000 0.000000 0.000000 0.000000
1 0 1 1 0.999884 76.000000 26.000000 0.000000 0.000000 0.000000 0.000000 0.000000
1 0 1 1 0.999884 77.000000 26.000000 0.000000 0.000000 0.000000 0.000000 0.000000
1 0 1 1 0.999884 78.000000 26.000000 0.000000 0.000000 0.000000 0.000000 0.000000
1 0 1 1 0.999884 79.000000 26.000000 0.000000 0.000000 0.000000 0.000000 0.000000
1 0 1 1 0.999884 80.000000 26.000000 0.000000 0.000000 0.000000 0.000000 0.000000
1 0 1 1 0.999884 63.000000 27.000000 0.000000 0.000000 0.000000 0.000000 0.000000
1 0 1 1 0.999884 64.000000 27.000000 0.000000 0.000000 0.000000 0.000000 0.000000
1 0 1 1 0.999884 65.000000 27.000000 0.000000 0.000000 0.000000 0.000000 0.000000
1 0 1 1 0.999884 67.000000 27.000000 0.000000 0.000000 0.000000 0.000000 0.000000
1 0 1 1 0.999884 68.000000 27.000000 0.000000 0.000000 0.000000 0.000000 0.000000
1 0 1 1 0.999884 69.000000 27.000000 0.000000 0.000000 0.000000 0.000000 0.000000
1 0 1 1 0.999884 70.000000 27.000000 0.000000 0.000000 0.000000 0.000000 0.000000
1 0 1 1 0.999884 71.000000 27.000000 0.000000 0.000000 0.000000 0.000000 0.000000
1 0 1 1 0.999884 72.000000 27.000000 0.000000 0.000000 0.000000 0.000000 0.000000
1 0 1 1 0.999884 73.000000 27.000000 0.000000 0.000000 0.000000 0.000000 0.000000
1 0 1 1 0.999884 74.000000 27.000000 0.000000 0.000000 0.000000 0.000000 0.000000
1 0 1 1 0.999884 75.000000 27.000000 0.000000 0.000000 0.000000 0.000000 0.000000
1 0 1 1 0.999884 76.000000 27.000000 0.000000 0.000000 0.000000 0.000000 0.000000
1 0 1 1 0.999884 77.000000 27.000000 0.000000 0.000000 0.000000 0.000000 0.000000
1 0 1 1 0.999884 78.000000 27.000000 0.000000 0.000000 0.000000 0.000000 0.000000
1 0 1 1 0.999884 79.000000 27.000000 0.000000 0.000000 0.000000 0.000000 0.000000
1 0 1 1 0.999884 80.000000 27.000000 0.000000 0.000000 0.000000 0.000000 0.000000
1 0 1 1 0.999884 81.000000 27.000000 0.000000 0.000000 0.000000 0.000000 0.000000
1 0 1 1 0.999884 63.000000 28.000000 0.000000 0.000000 0.000000 0.000000 0.000000
1 0 1 1 0.999884 64.000000 28.000000 0.000000 0.000000 0.000000 0.000000 0.000000
1 0 1 1 0.999884 65.000000 28.000000 0.000000 0.000000 0.000000 0.000000 0.000000
1 0 1 1 0.999884 67.000000 28.000000 0.000000 0.000000 0.000000 0.000000 0.000000
1 0 1 1 0.999884 68.000000 28.000000 0.000000 0.000000 0.000000 0.000000 0.000000
1 0 1 1 0.999884 69.000000 28.000000 0.000000 0.000000 0.000000 0.000000 0.000000
1 0 1 1 0.999884 70.000000 28.000000 0.000000 0.000000 0.000000 0.000000 0.000000
1 0 1 1 0.999884 71.000000 28.000000 0.000000 0.000000 0.000000 0.000000 0.000000
1 0 1 1 0.999884 72.000000 28.000000 0.000000 0.000000 0.000000 0.000000 0.000000
1 0 1 1 0.999884 73.000000 28.000000 0.000000 0.000000 0.000000 0.000000 0.000000
1 0 1 1 0.999884 74.000000 28.000000 0.000000 0.000000 0.000000 0.000000 0.000000
1 0 1 1 0.999884 75.000000 28.000000 0.000000 0.000000 0.000000 0.000000 0.000000
1 0 1 1 0.999884 76.000000 28.000000 0.000000 0.000000 0.000000 0.000000 0.000000
1 0 1 1 0.999884 77.000000 28.000000 0.000000 0.000000 0.000000 0.000000 0.000000
1 0 1 1 0.999884 78.000000 28.000000 0.000000 0.000000 0.000000 0.000000 0.000000
1 0 1 1 0.999884 79.000000 28.000000 0.000000 0.000000 0.000000 0.000000 0.000000
1 0 1 1 0.999884 80.000000 28.000000 0.000000 0.000000 0.000000 0.000000 0.000000
1 0 1 1 0.999884 81.000000 28.000000 0.000000 0.000000 0.000000 0.000000 0.000000
1 0 1 1 0.999884 82.000000 28.000000 0.000000 0.000000 0.000000 0.000000 0.000000
1 0 1 1 0.999884 62.000000 29.000000 0.000000 0.000000 0.000000 0.000000 0.000000
1 0 1 1 0.999884 63.000000 29.000000 0.000000 0.000000 0.000000 0.000000 0.000000
1 0 1 1 0.999884 64.000000 29.000000 0.000000 0.000000 0.000000 0.000000 0.000000
1 0 1 1 0.999884 65.000000 29.000000 0.000000 0.000000 0.000000 0.000000 0.000000
1 0 1 1 0.999884 67.000000 29.000000 0.000000 0.000000 0.000000 0.000000 0.000000
1 0 1 1 0.999884 68.000000 29.000000 0.000000 0.000000 0.000000 0.000000 0.000000
1 0 1 1 0.999884 69.000000 29.000000 0.000000 0.000000 0.000000 0.000000 0.000000
1 0 1 1 0.999884 70.000000 29.000000 0.000000 0.000000 0.000000 0.000000 0.000000
1 0 1 1 0.999884 71.000000 29.000000 0.000000 0.000000 0.000000 0.000000 0.000000
1 0 1 1 0.999884 72.000000 29.000000 0.000000 0.000000 0.000000 0.000000 0.000000
1 0 1 1 0.999884 73.000000 29.000000 0.000000 0.000000 0.000000 0.000000 0.000000
1 0 1 1 0.999884 74.000000 29.000000 0.000000 0.000000 0.000000 0.000000 0.000000
1 0 1 1 0.999884 75.000000 29.000000 0.000000 0.000000 0.000000 0.000000 0.000000
1 0 1 1 0.999884 76.000000 29.000000 0.000000 0.000000 0.000000 0.000000 0.000000
1 0 1 1 0.999884 77.000000 29.000000 0.000000 0.000000 0.000000 0.000000 0.000000
1 0 1 1 0.999884 78.000000 29.000000 0.000000 0.000000 0.000000 0.000000 0.000000
1 0 1 1 0.999884 79.000000 29.000000 0.000000 0.000000 0.000000 0.000000 0.000000
1 0 1 1 0.999884 80.000000 29.000000 0.000000 0.000000 0.000000 0.000000 0.000000
1 0 1 1 0.999884 81.000000 29.000000 0.000000 0.000000 0.000000 0.000000 0.000000
1 0 1 1 0.999884 82.000000 29.000000 0.000000 0.000000 0.000000 0.000000 0.000000
1 0 1 1 0.999884 83.000000 29.000000 0.000000 0.000000 0.000000 0.000000 0.000000
1 0 1 1 0.999884 84.000000 29.000000 0.000000 0.000000 0.000000 0.000000 0.000000
1 0 1 1 0.999884 61.000000 30.000000 0.000000 0.000000 0.000000 0.000000 0.000000
1 0 1 1 0.999884 62.000000 30.000000 0.000000 0.000000 0.000000 0.000000 0.000000
1 0 1 1 0.999884 63.000000 30.000000 0.000000 0.000000 0.000000 0.000000 0.000000
1 0 1 1 0.999884 64.000000 30.000000 0.000000 0.000000 0.000000 0.000000 0.000000
1 0 1 1 0.999884 65.000000 30.000000 0.000000 0.000000 0.000000 0.000000 0.000000
1 0 1 1 0.999884 67.000000 30.000000 0.000000 0.000000 0.000000 0.000000 0.000000
1 0 1 1 0.999884 68.000000 30.000000 0.000000 0.000000 0.000000 0.000000 0.000000
1 0 1 1 0.999884 69.000000 30.000000 0.000000 0.000000 0.000000 0.000000 0.000000
1 0 1 1 0.999884 70.000000 30.000000 0.000000 0.000000 0.000000 0.000000 0.000000
1 0 1 1 0.999884 71.000000 30.000000 0.000000 0.000000 0.000000 0.000000 0.000000
1 0 1 1 0.999884 72.000000 30.000000 0.000000 0.000000 0.000000 0.000000 0.000000
1 0 1 1 0.999884 73.000000 30.000000 0.000000 0.000000 0.000000 0.000000 0.000000
1 0 1 1 0.999884 74.000000 30.000000 0.000000 0.000000 0.000000 0.000000 0.000000
1 0 1 1 0.999884 75.000000 30.000000 0.000000 0.000000 0.000000 0.000000 0.000000
1 0 1 1 0.999884 76.000000 30.000000 0.000000 0.000000 0.000000 0.000000 0.000000
1 0 1 1 0.999884 77.000000 30.000000 0.000000 0.000000 0.000000 0.000000 0.000000
1 0 1 1 0.999884 78.000000 30.000000 0.000000 0.000000 0.000000 0.000000 0.000000
1 0 1 1 0.999884 79.000000 30.000000 0.000000 0.000000 0.000000 0.000000 0.000000
1 0 1 1 0.999884 80.000000 30.000000 0.000000 0.000000 0.000000 0.000000 0.000000
1 0 1 1 0.999884 81.000000 30.000000 0.000000 0.000000 0.000000 0.000000 0.000000
1 0 1 1 0.999884 82.000000 30.000000 0.000000 0.000000 0.000000 0.000000 0.000000
1 0 1 1 0.999884 83.000000 30.000000 0.000000 0.000000 0.000000 0.000000 0.000000
1 0 1 1 0.999884 84.000000 30.000000 0.000000 0.000000 0.000000 0.000000 0.000000
1 0 1 1 0.999884 85.000000 30.000000 0.000000 0.000000 0.000000 0.000000 0.000000
1 0 1 1 0.999884 59.000000 31.000000 0.000000 0.000000 0.000000 0.000000 0.000000
1 0 1 1 0.999884 60.000000 31.000000 0.000000 0.000000 0.000000 0.000000 0.000000
1 0 1 1 0.999884 61.000000 31.000000 0.000000 0.000000 0.000000 0.000000 0.000000
1 0 1 1 0.999884 62.000000 31.000000 0.000000 0.000000 0.000000 0.000000 0.000000
1 0 1 1 0.999884 63.000000 31.000000 0.000000 0.000000 0.000000 0.000000 0.000000
1 0 1 1 0.999884 64.000000 31.000000 0.000000 0.000000 0.000000 0.000000 0.000000
1 0 1 1 0.999884 65.000000 31.000000 0.000000 0.000000 0.000000 0.000000 0.000000
1 0 1 1 0.999884 67.000000 31.000000 0.000000 0.000000 0.000000 0.000000 0.000000
1 0 1 1 0.999884 68.000000 31.000000 0.000000 0.000000 0.000000 0.000000 0.000000
1 0 1 1 0.999884 69.000000 31.000000 0.000000 0.000000 0.000000 0.000000 0.000000
1 0 1 1 0.999884 70.000000 31.000000 0.000000 0.000000 0.000000 0.000000 0.000000
1 0 1 1 0.999884 71.000000 31.000000 0.000000 0.000000 0.000000 0.000000 0.000000
1 0 1 1 0.999884 72.000000 31.000000 0.000000 0.000000 0.000000 0.000000 0.000000
1 0 1 1 0.999884 73.000000 31.000000 0.000000 0.000000 0.000000 0.000000 0.000000
1 0 1 1 0.999884 74.000000 31.000000 0.000000 0.000000 0.000000 0.000000 0.000000
1 0 1 1 0.999884 75.000000 31.000000 0.000000 0.000000 0.000000 0.000000 0.000000
1 0 1 1 0.999884 76.000000 31.000000 0.000000 0.000000 0.000000 0.000000 0.000000
1 0 1 1 0.999884 77.000000 31.000000 0.000000 0.000000 0.000000 0.000000 0.000000
1 0 1 1 0.999884 78.000000 31.000000 0.000000 0.000000 0.000000 0.000000 0.000000
1 0 1 1 0.999884 79.000000 31.000000 0.000000 0.000000 0.000000 0.000000 0.000000
1 0 1 1 0.999884 80.000000 31.000000 0.000000 0.000000 0.000000 0.000000 0.000000
1 0 1 1 0.999884 81.000000 31.000000 0.000000 0.000000 0.000000 0.000000 0.000000
1 0 1 1 0.999884 82.000000 31.000000 0.000000 0.000000 0.000000 0.000000 0.000000
1 0 1 1 0.999884 83.000000 31.000000 0.000000 0.000000 0.000000 0.000000 0.000000
1 0 1 1 0.999884 84.000000 31.000000 0.000000 0.000000 0.000000 0.000000 0.000000
1 0 1 1 0.999884 85.000000 31.000000 0.000000 0.000000 0.000000 0.000000 0.000000
1 0 1 1 0.999884 86.000000 31.000000 0.000000 0.000000 0.000000 0.000000 0.000000
1 0 1 1 0.999884 87.000000 31.000000 0.000000 0.000000 0.000000 0.000000 0.000000
1 0 1 1 0.999884 57.000000 32.000000 0.000000 0.000000 0.000000 0.000000 0.000000
1 0 1 1 0.999884 58.000000 32.000000 0.000000 0.000000 0.000000 0.000000 0.000000
1 0 1 1 0.999884 59.000000 32.000000 0.000000 0.000000 0.000000 0.000000 0.000000
1 0 1 1 0.999884 60.000000 32.000000 0.000000 0.000000 0.000000 0.000000 0.000000
1 0 1 1 0.999884 61.000000 32.000000 0.000000 0.000000 0.000000 0.000000 0.000000
1 0 1 1 0.999884 62.000000 32.000000 0.000000 0.000000 0.000000 0.000000 0.000000
1 0 1 1 0.999884 63.000000 32.000000 0.000000 0.000000 0.000000 0.000000 0.000000
1 0 1 1 0.999884 64.000000 32.000000 0.000000 0.000000 0.000000 0.000000 0.000000
1 0 1 1 0.999884 65.000000 32.000000 0.000000 0.000000 0.000000 0.000000 0.000000
1 0 1 1 0.999884 67.000000 32.000000 0.000000 0.000000 0.000000 0.000000 0.000000
1 0 1 1 0.999884 68.000000 32.000000 0.000000 0.000000 0.000000 0.000000 0.000000
1 0 1 1 0.999884 69.000000 32.000000 0.000000 0.000000 0.000000 0.000000 0.000000
1 0 1 1 0.999884 70.000000 32.000000 0.000000 0.000000 0.000000 0.000000 0.000000
1 0 1 1 0.999884 71.000000 32.000000 0.000000 0.000000 0.000000 0.000000 0.000000
1 0 1 1 0.999884 72.000000 32.000000 0.000000 0.000000 0.000000 0.000000 0.000000
1 0 1 1 0.999884 73.000000 32.000000 0.000000 0.000000 0.000000 0.000000 0.000000
1 0 1 1 0.999884 74.000000 32.000000 0.000000 0.000000 0.000000 0.000000 0.000000
1 0 1 1 0.999884 75.000000 32.000000 0.000000 0.000000 0.000000 0.000000 0.000000
1 0 1 1 0.999884 76.000000 32.000000 0.000000 0.000000 0.000000 0.000000 0.000000
1 0 1 1 0.999884 77.000000 32.000000 0.000000 0.000000 0.000000 0.000000 0.000000
1 0 1 1 0.999884 78.000000 32.000000 0.000000 0.000000 0.000000 0.000000 0.000000
1 0 1 1 0.999884 79.000000 32.000000 0.000000 0.000000 0.000000 0.000000 0.000000
1 0 1 1 0.999884 80.000000 32.000000 0.000000 0.000000 0.000000 0.000000 0.000000
1 0 1 1 0.999884 81.000000 32.000000 0.000000 0.000000 0.000000 0.000000 0.000000
1 0 1 1 0.999884 82.000000 32.000000 0.000000 0.000000 0.000000 0.000000 0.000000
1 0 1 1 0.999884 83.000000 32.000000 0.000000 0.000000 0.000000 0.000000 0.000000
1 0 1 1 0.999884 84.000000 32.000000 0.000000 0.000000 0.000000 0.000000 0.000000
1 0 1 1 0.999884 85.000000 32.000000 0.000000 0.000000 0.000000 0.000000 0.000000
1 0 1 1 0.999884 86.000000 32.000000 0.000000 0.000000 0.000000 0.000000 0.000000
1 0 1 1 0.999884 87.000000 32.000000 0.000000 0.000000 0.000000 0.000000 0.000000
1 0 1 1 0.999884 88.000000 32.000000 0.000000 0.000000 0.000000 0.000000 0.000000
1 0 1 1 0.999884 53.000000 33.000000 0.000000 0.000000 0.000000 0.000000 0.000000
1 0 1 1 0.999884 54.000000 33.000000 0.000000 0.000000 0.000000 0.000000 0.000000
1 0 1 1 0.999884 55.000000 33.000000 0.000000 0.000000 0.000000 0.000000 0.000000
1 0 1 1 0.999884 56.000000 33.000000 0.000000 0.000000 0.000000 0.000000 0.000000
1 0 1 1 0.999884 57.000000 33.000000 0.000000 0.000000 0.000000 0.000000 0.000000
1 0 1 1 0.999884 58.000000 33.000000 0.000000 0.000000 0.000000 0.000000 0.000000
1 0 1 1 0.999884 59.000000 33.000000 0.000000 0.000000 0.000000 0.000000 0.000000
1 0 1 1 0.999884 60.000000 33.000000 0.000000 0.000000 0.000000 0.000000 0.000000
1 0 1 1 0.999884 61.000000 33.000000 0.000000 0.000000 0.000000 0.000000 0.000000
1 0 1 1 0.999884 62.000000 33.000000 0.000000 0.000000 0.000000 0.000000 0.000000
1 0 1 1 0.999884 63.000000 33.000000 0.000000 0.000000 0.000000 0.000000 0.000000
1 0 1 1 0.999884 64.000000 33.000000 0.000000 0.000000 0.000000 0.000000 0.000000
1 0 1 1 0.999884 65.000000 33.000000 0.000000 0.000000 0.000000 0.000000 0.000000
1 0 1 1 0.999884 67.000000 33.000000 0.000000 0.000000 0.000000 0.000000 0.000000
1 0 1 1 0.999884 68.000000 33.000000 0.000000 0.000000 0.000000 0.000000 0.000000
1 0 1 1 0.999884 69.000000 33.000000 0.000000 0.000000 0.000000 0.000000 0.000000
1 0 1 1 0.999884 70.000000 33.000000 0.000000 0.000000 0.000000 0.000000 0.000000
1 0 1 1 0.999884 71.000000 33.000000 0.000000 0.000000 0.000000 0.000000 0.000000
1 0 1 1 0.999884 72.000000 33.000000 0.000000 0.000000 0.000000 0.000000 0.000000
1 0 1 1 0.999884 73.000000 33.000000 0.000000 0.000000 0.000000 0.000000 0.000000
1 0 1 1 0.999884 74.000000 33.000000 0.000000 0.000000 0.000000 0.000000 0.000000
1 0 1 1 0.999884 75.000000 33.000000 0.000000 0.000000 0.000000 0.000000 0.000000
1 0 1 1 0.999884 76.000000 33.000000 0.000000 0.000000 0.000000 0.000000 0.000000
1 0 1 1 0.999884 77.000000 33.000000 0.000000 0.000000 0.000000 0.000000 0.000000
1 0 1 1 0.999884 78.000000 33.000000 0.000000 0.000000 0.000000 0.000000 0.000000
1 0 1 1 0.999884 79.000000 33.000000 0.000000 0.000000 0.000000 0.000000 0.000000
1 0 1 1 0.999884 80.000000 33.000000 0.000000 0.000000 0.000000 0.000000 0.000000
1 0 1 1 0.999884 81.000000 33.000000 0.000000 0.000000 0.000000 0.000000 0.000000
1 0 1 1 0.999884 82.000000 33.000000 0.000000 0.000000 0.000000 0.000000 0.000000
1 0 1 1 0.999884 83.000000 33.000000 0.000000 0.000000 0.000000 0.000000 0.000000
1 0 1 1 0.999884 84.000000 33.000000 0.000000 0.000000 0.000000 0.000000 0.000000
1 0 1 1 0.999884 85.000000 33.000000 0.000000 0.000000 0.000000 0.000000 0.000000
1 0 1 1 0.999884 86.000000 33.000000 0.000000 0.000000 0.000000 0.000000 0.000000
1 0 1 1 0.999884 87.000000 33.000000 0.000000 0.000000 0.000000 0.000000 0.000000
1 0 1 1 0.999884 88.000000 33.000000 0.000000 0.000000 0.000000 0.000000 0.000000
1 0 1 1 0.999884 89.000000 33.000000 0.000000 0.000000 0.000000 0.000000 0.000000
1 0 1 1 0.999884 50.000000 34.000000 0.000000 0.000000 0.000000 0.000000 0.000000
1 0 1 1 0.999884 51.000000 34.000000 0.000000 0.000000 0.000000 0.000000 0.000000
1 0 1 1 0.999884 52.000000 34.000000 0.000000 0.000000 0.000000 0.000000 0.000000
1 0 1 1 0.999884 53.000000 34.000000 0.000000 0.000000 0.000000 0.000000 0.000000
1 0 1 1 0.999884 54.000000 34.000000 0.000000 0.000000 0.000000 0.000000 0.000000
1 0 1 1 0.999884 55.000000 34.000000 0.000000 0.000000 0.000000 0.000000 0.000000
1 0 1 1 0.999884 56.000000 34.000000 0.000000 0.000000 0.000000 0.000000 0.000000
1 0 1 1 0.999884 57.000000 34.000000 0.000000 0.000000 0.000000 0.000000 0.000000
1 0 1 1 0.999884 58.000000 34.000000 0.000000 0.000000 0.000000 0.000000 0.000000
1 0 1 1 0.999884 59.000000 34.000000 0.000000 0.000000 0.000000 0.000000 0.000000
1 0 1 1 0.999884 60.000000 34.000000 0.000000 0.000000 0.000000 0.000000 0.000000
1 0 1 1 0.999884 61.000000 34.000000 0.000000 0.000000 0.000000 0.000000 0.000000
1 0 1 1 0.999884 62.000000 34.000000 0.000000 0.000000 0.000000 0.000000 0.000000
1 0 1 1 0.999884 63.000000 34.000000 0.000000 0.000000 0.000000 0.000000 0.000000
1 0 1 1 0.999884 64.000000 34.000000 0.000000 0.000000 0.000000 0.000000 0.000000
1 0 1 1 0.999884 65.000000 34.000000 0.000000 0.000000 0.000000 0.000000 0.000000
1 0 1 1 0.999884 67.000000 34.000000 0.000000 0.000000 0.000000 0.000000 0.000000
1 0 1 1 0.999884 68.000000 34.000000 0.000000 0.000000 0.000000 0.000000 0.000000
1 0 1 1 0.999884 69.000000 34.000000 0.000000 0.000000 0.000000 0.000000 0.000000
1 0 1 1 0.999884 70.000000 34.000000 0.000000 0.000000 0.000000 0.000000 0.000000
1 0 1 1 0.999884 71.000000 34.000000 0.000000 0.000000 0.000000 0.000000 0.000000
1 0 1 1 0.999884 72.000000 34.000000 0.000000 0.000000 0.000000 0.000000 0.000000
1 0 1 1 0.999884 73.000000 34.000000 0.000000 0.000000 0.000000 0.000000 0.000000
1 0 1 1 0.999884 74.000000 34.000000 0.000000 0.000000 0.000000 0.000000 0.000000
1 0 1 1 0.999884 75.000000 34.000000 0.000000 0.000000 0.000000 0.000000 0.000000
1 0 1 1 0.999884 76.000000 34.000000 0.000000 0.000000 0.000000 0.000000 0.000000
1 0 1 1 0.999884 77.000000 34.000000 0.000000 0.000000 0.000000 0.000000 0.000000
1 0 1 1 0.999884 78.000000 34.000000 0.000000 0.000000 0.000000 0.000000 0.000000
1 0 1 1 0.999884 79.000000 34.000000 0.000000 0.000000 0.000000 0.000000 0.000000
1 0 1 1 0.999884 80.000000 34.000000 0.000000 0.000000 0.000000 0.000000 0.000000
1 0 1 1 0.999884 81.000000 34.000000 0.000000 0.000000 0.000000 0.000000 0.000000
1 0 1 1 0.999884 82.000000 34.000000 0.000000 0.000000 0.000000 0.000000 0.000000
1 0 1 1 0.999884 83.000000 34.000000 0.000000 0.000000 0.000000 0.000000 0.000000
1 0 1 1 0.999884 84.000000 34.000000 0.000000 0.000000 0.000000 0.000000 0.000000
1 0 1 1 0.999884 85.000000 34.000000 0.000000 0.000000 0.000000 0.000000 0.000000
1 0 1 1 0.999884 86.000000 34.000000 0.000000 0.000000 0.000000 0.000000 0.000000
1 0 1 1 0.999884 87.000000 34.000000 0.000000 0.000000 0.000000 0.000000 0.000000
1 0 1 1 0.999884 88.000000 34.000000 0.000000 0.000000 0.000000 0.000000 0.000000
1 0 1 1 0.999884 89.000000 34.000000 0.000000 0.000000 0.000000 0.000000 0.000000
1 0 1 1 0.999884 50.000000 35.000000 0.000000 0.000000 0.000000 0.000000 0.000000
1 0 1 1 0.999884 51.000000 35.000000 0.000000 0.000000 0.000000 0.000000 0.000000
1 0 1 1 0.999884 52.000000 35.000000 0.000000 0.000000 0.000000 0.000000 0.000000
1 0 1 1 0.999884 53.000000 35.000000 0.000000 0.000000 0.000000 0.000000 0.000000
1 0 1 1 0.999884 54.000000 35.000000 0.000000 0.000000 0.000000 0.000000 0.000000
1 0 1 1 0.999884 55.000000 35.000000 0.000000 0.000000 0.000000 0.000000 0.000000
1 0 1 1 0.999884 56.000000 35.000000 0.000000 0.000000 0.000000 0.000000 0.000000
1 0 1 1 0.999884 57.000000 35.000000 0.000000 0.000000 0.000000 0.000000 0.000000
1 0 1 1 0.999884 58.000000 35.000000 0.000000 0.000000 0.000000 0.000000 0.000000
1 0 1 1 0.999884 59.000000 35.000000 0.000000 0.000000 0.000000 0.000000 0.000000
1 0 1 1 0.999884 60.000000 35.000000 0.000000 0.000000 0.000000 0.000000 0.000000
1 0 1 1 0.999884 61.000000 35.000000 0.000000 0.000000 0.000000 0.000000 0.000000
1 0 1 1 0.999884 62.000000 35.000000 0.000000 0.000000 0.000000 0.000000 0.000000
1 0 1 1 0.999884 63.000000 35.000000 0.000000 0.000000 0.000000 0.000000 0.000000
1 0 1 1 0.999884 64.000000 35.000000 0.000000 0.000000 0.000000 0.000000 0.000000
1 0 1 1 0.999884 65.000000 35.000000 0.000000 0.000000 0.000000 0.000000 0.000000
1 0 1 1 0.999884 66.000000 35.000000 0.000000 0.000000 0.000000 0.000000 0.000000
1 0 1 1 0.999884 67.000000 35.000000 0.000000 0.000000 0.000000 0.000000 0.000000
1 0 1 1 0.999884 68.000000 35.000000 0.000000 0.000000 0.000000 0.000000 0.000000
1 0 1 1 0.999884 69.000000 35.000000 0.000000 0.000000 0.000000 0.000000 0.000000
1 0 1 1 0.999884 70.000000 35.000000 0.000000 0.000000 0.000000 0.000000 0.000000
1 0 1 1 0.999884 71.000000 35.000000 0.000000 0.000000 0.000000 0.000000 0.000000
1 0 1 1 0.999884 72.000000 35.000000 0.000000 0.000000 0.000000 0.000000 0.000000
1 0 1 1 0.999884 73.000000 35.000000 0.000000 0.000000 0.000000 0.000000 0.000000
1 0 1 1 0.999884 74.000000 35.000000 0.000000 0.000000 0.000000 0.000000 0.000000
1 0 1 1 0.999884 75.000000 35.000000 0.000000 0.000000 0.000000 0.000000 0.000000
1 0 1 1 0.999884 76.000000 35.000000 0.000000 0.000000 0.000000 0.000000 0.000000
1 0 1 1 0.999884 77.000000 35.000000 0.000000 0.000000 0.000000 0.000000 0.000000
1 0 1 1 0.999884 78.000000 35.000000 0.000000 0.000000 0.000000 0.000000 0.000000
1 0 1 1 0.999884 79.000000 35.000000 0.000000 0.000000 0.000000 0.000000 0.000000
1 0 1 1 0.999884 80.000000 35.000000 0.000000 0.000000 0.000000 0.000000 0.000000
1 0 1 1 0.999884 81.000000 35.000000 0.000000 0.000000 0.000000 0.000000 0.000000
1 0 1 1 0.999884 82.000000 35.000000 0.000000 0.000000 0.000000 0.000000 0.000000
1 0 1 1 0.999884 83.000000 35.000000 0.000000 0.000000 0.000000 0.000000 0.000000
1 0 1 1 0.999884 84.000000 35.000000 0.000000 0.000000 0.000000 0.000000 0.000000
1 0 1 1 0.999884 85.000000 35.000000 0.000000 0.000000 0.000000 0.000000 0.000000
1 0 1 1 0.999884 86.000000 35.000000 0.000000 0.000000 0.000000 0.000000 0.000000
1 0 1 1 0.999884 87.000000 35.000000 0.000000 0.000000 0.000000 0.000000 0.000000
1 0 1 1 0.999884 88.000000 35.000000 0.000000 0.000000 0.000000 0.000000 0.000000
1 0 1 1 0.999884 89.000000 35.000000 0.000000 0.000000 0.000000 0.000000 0.000000
1 0 1 1 0.999884 90.000000 35.000000 0.000000 0.000000 0.000000 0.000000 0.000000
1 0 1 1 0.999884 161.000000 35.000000 0.000000 0.000000 0.000000 0.000000 0.000000
1 0 1 1 0.999884 51.000000 36.000000 0.000000 0.000000 0.000000 0.000000 0.000000
1 0 1 1 0.999884 52.000000 36.000000 0.000000 0.000000 0.000000 0.000000 0.000000
1 0 1 1 0.999884 53.000000 36.000000 0.000000 0.000000 0.000000 0.000000 0.000000
1 0 1 1 0.999884 54.000000 36.000000 0.000000 0.000000 0.000000 0.000000 0.000000
1 0 1 1 0.999884 55.000000 36.000000 0.000000 0.000000 0.000000 0.000000 0.000000
1 0 1 1 0.999884 56.000000 36.000000 0.000000 0.000000 0.000000 0.000000 0.000000
1 0 1 1 0.999884 57.000000 36.000000 0.000000 0.000000 0.000000 0.000000 0.000000
1 0 1 1 0.999884 58.000000 36.000000 0.000000 0.000000 0.000000 0.000000 0.000000
1 0 1 1 0.999884 59.000000 36.000000 0.000000 0.000000 0.000000 0.000000 0.000000
1 0 1 1 0.999884 60.000000 36.000000 0.000000 0.000000 0.000000 0.000000 0.000000
1 0 1 1 0.999884 61.000000 36.000000 0.000000 0.000000 0.000000 0.000000 0.000000
1 0 1 1 0.999884 62.000000 36.000000 0.000000 0.000000 0.000000 0.000000 0.000000
1 0 1 1 0.999884 63.000000 36.000000 0.000000 0.000000 0.000000 0.000000 0.000000
1 0 1 1 0.999884 64.000000 36.000000 0.000000 0.000000 0.000000 0.000000 0.000000
1 0 1 1 0.999884 65.000000 36.000000 0.000000 0.000000 0.000000 0.000000 0.000000
1 0 1 1 0.999884 66.000000 36.000000 0.000000 0.000000 0.000000 0.000000 0.000000
1 0 1 1 0.999884 67.000000 36.000000 0.000000 0.000000 0.000000 0.000000 0.000000
1 0 1 1 0.999884 68.000000 36.000000 0.000000 0.000000 0.000000 0.000000 0.000000
1 0 1 1 0.999884 69.000000 36.000000 0.000000 0.000000 0.000000 0.000000 0.000000
1 0 1 1 0.999884 70.000000 36.000000 0.000000 0.000000 0.000000 0.000000 0.000000
1 0 1 1 0.999884 71.000000 36.000000 0.000000 0.000000 0.000000 0.000000 0.000000
1 0 1 1 0.999884 72.000000 36.000000 0.000000 0.000000 0.000000 0.000000 0.000000
1 0 1 1 0.999884 73.000000 36.000000 0.000000 0.000000 0.000000 0.000000 0.000000
1 0 1 1 0.999884 74.000000 36.000000 0.000000 0.000000 0.000000 0.000000 0.000000
1 0 1 1 0.999884 75.000000 36.000000 0.000000 0.000000 0.000000 0.000000 0.000000
1 0 1 1 0.999884 76.000000 36.000000 0.000000 0.000000 0.000000 0.000000 0.000000
1 0 1 1 0.999884 77.000000 36.000000 0.000000 0.000000 0.000000 0.000000 0.000000
1 0 1 1 0.999884 78.000000 36.000000 0.000000 0.000000 0.000000 0.000000 0.000000
1 0 1 1 0.999884 79.000000 36.000000 0.000000 0.000000 0.000000 0.000000 0.000000
1 0 1 1 0.999884 80.000000 36.000000 0.000000 0.000000 0.000000 0.000000 0.000000
1 0 1 1 0.999884 81.000000 36.000000 0.000000 0.000000 0.000000 0.000000 0.000000
1 0 1 1 0.999884 82.000000 36.000000 0.000000 0.000000 0.000000 0.000000 0.000000
1 0 1 1 0.999884 83.000000 36.000000 0.000000 0.000000 0.000000 0.000000 0.000000
1 0 1 1 0.999884 84.000000 36.000000 0.000000 0.000000 0.000000 0.000000 0.000000
1 0 1 1 0.999884 85.000000 36.000000 0.000000 0.000000 0.000000 0.000000 0.000000
1 0 1 1 0.999884 86.000000 36.000000 0.000000 0.000000 0.000000 0.000000 0.000000
1 0 1 1 0.999884 87.000000 36.000000 0.000000 0.000000 0.000000 0.000000 0.000000
1 0 1 1 0.999884 88.000000 36.000000 0.000000 0.000000 0.000000 0.000000 0.000000
1 0 1 1 0.999884 89.000000 36.000000 0.000000 0.000000 0.000000 0.000000 0.000000
1 0 1 1 0.999884 90.000000 36.000000 0.000000 0.000000 0.000000 0.000000 0.000000
1 0 1 1 0.999884 160.000000 36.000000 0.000000 0.000000 0.000000 0.000000 0.000000
1 0 1 1 0.999884 161.000000 36.000000 0.000000 0.000000 0.000000 0.000000 0.000000
1 0 1 1 0.999884 51.000000 37.000000 0.000000 0.000000 0.000000 0.000000 0.000000
1 0 1 1 0.999884 52.000000 37.000000 0.000000 0.000000 0.000000 0.000000 0.000000
1 0 1 1 0.999884 53.000000 37.000000 0.000000 0.000000 0.000000 0.000000 0.000000
1 0 1 1 0.999884 54.000000 37.000000 0.000000 0.000000 0.000000 0.000000 0.000000
1 0 1 1 0.999884 55.000000 37.000000 0.000000 0.000000 0.000000 0.000000 0.000000
1 0 1 1 0.999884 56.000000 37.000000 0.000000 0.000000 0.000000 0.000000 0.000000
1 0 1 1 0.999884 57.000000 37.000000 0.000000 0.000000 0.000000 0.000000 0.000000
1 0 1 1 0.999884 58.000000 37.000000 0.000000 0.000000 0.000000 0.000000 0.000000
1 0 1 1 0.999884 59.000000 37.000000 0.000000 0.000000 0.000000 0.000000 0.000000
1 0 1 1 0.999884 60.000000 37.000000 0.000000 0.000000 0.000000 0.000000 0.000000
1 0 1 1 0.999884 61.000000 37.000000 0.000000 0.000000 0.000000 0.000000 0.000000
1 0 1 1 0.999884 62.000000 37.000000 0.000000 0.000000 0.000000 0.000000 0.000000
1 0 1 1 0.999884 63.000000 37.000000 0.000000 0.000000 0.000000 0.000000 0.000000
1 0 1 1 0.999884 64.000000 37.000000 0.000000 0.000000 0.000000 0.000000 0.000000
1 0 1 1 0.999884 65.000000 37.000000 0.000000 0.000000 0.000000 0.000000 0.000000
1 0 1 1 0.999884 66.000000 37.000000 0.000000 0.000000 0.000000 0.000000 0.000000
1 0 1 1 0.999884 67.000000 37.000000 0.000000 0.000000 0.000000 0.000000 0.000000
1 0 1 1 0.999884 68.000000 37.000000 0.000000 0.000000 0.000000 0.000000 0.000000
1 0 1 1 0.999884 69.000000 37.000000 0.000000 0.000000 0.000000 0.000000 0.000000
1 0 1 1 0.999884 70.000000 37.000000 0.000000 0.000000 0.000000 0.000000 0.000000
1 0 1 1 0.999884 71.000000 37.000000 0.000000 0.000000 0.000000 0.000000 0.000000
1 0 1 1 0.999884 72.000000 37.000000 0.000000 0.000000 0.000000 0.000000 0.000000
1 0 1 1 0.999884 73.000000 37.000000 0.000000 0.000000 0.000000 0.000000 0.000000
1 0 1 1 0.999884 74.000000 37.000000 0.000000 0.000000 0.000000 0.000000 0.000000
1 0 1 1 0.999884 75.000000 37.000000 0.000000 0.000000 0.000000 0.000000 0.000000
1 0 1 1 0.999884 76.000000 37.000000 0.000000 0.000000 0.000000 0.000000 0.000000
1 0 1 1 0.999884 77.000000 37.000000 0.000000 0.000000 0.000000 0.000000 0.000000
1 0 1 1 0.999884 78.000000 37.000000 0.000000 0.000000 0.000000 0.000000 0.000000
1 0 1 1 0.999884 79.000000 37.000000 0.000000 0.000000 0.000000 0.000000 0.000000
1 0 1 1 0.999884 80.000000 37.000000 0.000000 0.000000 0.000000 0.000000 0.000000
1 0 1 1 0.999884 81.000000 37.000000 0.000000 0.000000 0.000000 0.000000 0.000000
1 0 1 1 0.999884 82.000000 37.000000 0.000000 0.000000 0.000000 0.000000 0.000000
1 0 1 1 0.999884 83.000000 37.000000 0.000000 0.000000 0.000000 0.000000 0.000000
1 0 1 1 0.999884 84.000000 37.000000 0.000000 0.000000 0.000000 0.000000 0.000000
1 0 1 1 0.999884 85.000000 37.000000 0.000000 0.000000 0.000000 0.000000 0.000000
1 0 1 1 0.999884 86.000000 37.000000 0.000000 0.000000 0.000000 0.000000 0.000000
1 0 1 1 0.999884 87.000000 37.000000 0.000000 0.000000 0.000000 0.000000 0.000000
1 0 1 1 0.999884 88.000000 37.000000 0.000000 0.000000 0.000000 0.000000 0.000000
1 0 1 1 0.999884 89.000000 37.000000 0.000000 0.000000 0.000000 0.000000 0.000000
1 0 1 1 0.999884 90.000000 37.000000 0.000000 0.000000 0.000000 0.000000 0.000000
1 0 1 1 0.999884 51.000000 38.000000 0.000000 0.000000 0.000000 0.000000 0.000000
1 0 1 1 0.999884 52.000000 38.000000 0.000000 0.000000 0.000000 0.000000 0.000000
1 0 1 1 0.999884 53.000000 38.000000 0.000000 0.000000 0.000000 0.000000 0.000000
1 0 1 1 0.999884 54.000000 38.000000 0.000000 0.000000 0.000000 0.000000 0.000000
1 0 1 1 0.999884 55.000000 38.000000 0.000000 0.000000 0.000000 0.000000 0.000000
1 0 1 1 0.999884 56.000000 38.000000 0.000000 0.000000 0.000000 0.000000 0.000000
1 0 1 1 0.999884 57.000000 38.000000 0.000000 0.000000 0.000000 0.000000 0.000000
1 0 1 1 0.999884 58.000000 38.000000 0.000000 0.000000 0.000000 0.000000 0.000000
1 0 1 1 0.999884 59.000000 38.000000 0.000000 0.000000 0.000000 0.000000 0.000000
1 0 1 1 0.999884 60.000000 38.000000 0.000000 0.000000 0.000000 0.000000 0.000000
1 0 1 1 0.999884 61.000000 38.000000 0.000000 0.000000 0.000000 0.000000 0.000000
1 0 1 1 0.999884 62.000000 38.000000 0.000000 0.000000 0.000000 0.000000 0.000000
1 0 1 1 0.999884 63.000000 38.000000 0.000000 0.000000 0.000000 0.000000 0.000000
1 0 1 1 0.999884 64.000000 38.000000 0.000000 0.000000 0.000000 0.000000 0.000000
1 0 1 1 0.999884 65.000000 38.000000 0.000000 0.000000 0.000000 0.000000 0.000000
1 0 1 1 0.999884 66.000000 38.000000 0.000000 0.000000 0.000000 0.000000 0.000000
1 0 1 1 0.999884 67.000000 38.000000 0.000000 0.000000 0.000000 0.000000 0.000000
1 0 1 1 0.999884 68.000000 38.000000 0.000000 0.000000 0.000000 0.000000 0.000000
1 0 1 1 0.999884 69.000000 38.000000 0.000000 0.000000 0.000000 0.000000 0.000000
1 0 1 1 0.999884 70.000000 38.000000 0.000000 0.000000 0.000000 0.000000 0.000000
1 0 1 1 0.999884 71.000000 38.000000 0.000000 0.000000 0.000000 0.000000 0.000000
1 0 1 1 0.999884 72.000000 38.000000 0.000000 0.000000 0.000000 0.000000 0.000000
1 0 1 1 0.999884 73.000000 38.000000 0.000000 0.000000 0.000000 0.000000 0.000000
1 0 1 1 0.999884 74.000000 38.000000 0.000000 0.000000 0.000000 0.000000 0.000000
1 0 1 1 0.999884 75.000000 38.000000 0.000000 0.000000 0.000000 0.000000 0.000000
1 0 1 1 0.999884 76.000000 38.000000 0.000000 0.000000 0.000000 0.000000 0.000000
1 0 1 1 0.999884 77.000000 38.000000 0.000000 0.000000 0.000000 0.000000 0.000000
1 0 1 1 0.999884 78.000000 38.000000 0.000000 0.000000 0.000000 0.000000 0.000000
1 0 1 1 0.999884 79.000000 38.000000 0.000000 0.000000 0.000000 0.000000 0.000000
1 0 1 1 0.999884 80.000000 38.000000 0.000000 0.000000 0.000000 0.000000 0.000000
1 0 1 1 0.999884 81.000000 38.000000 0.000000 0.000000 0.000000 0.000000 0.000000
1 0 1 1 0.999884 82.000000 38.000000 0.000000 0.000000 0.000000 0.000000 0.000000
1 0 1 1 0.999884 83.000000 38.000000 0.000000 0.000000 0.000000 0.000000 0.000000
1 0 1 1 0.999884 84.000000 38.000000 0.000000 0.000000 0.000000 0.000000 0.000000
1 0 1 1 0.999884 85.000000 38.000000 0.000000 0.000000 0.000000 0.000000 0.000000
1 0 1 1 0.999884 86.000000 38.000000 0.000000 0.000000 0.000000 0.000000 0.000000
1 0 1 1 0.999884 87.000000 38.000000 0.000000 0.000000 0.000000 0.000000 0.000000
1 0 1 1 0.999884 88.000000 38.000000 0.000000 0.000000 0.000000 0.000000 0.000000
1 0 1 1 0.999884 89.000000 38.000000 0.000000 0.000000 0.000000 0.000000 0.000000
1 0 1 1 0.999884 158.000000 38.000000 0.000000 0.000000 0.000000 0.000000 0.000000
1 0 1 1 0.999884 31.000000 39.000000 0.000000 0.000000 0.000000 0.000000 0.000000
1 0 1 1 0.999884 32.000000 39.000000 0.000000 0.000000 0.000000 0.000000 0.000000
1 0 1 1 0.999884 33.000000 39.000000 0.000000 0.000000 0.000000 0.000000 0.000000
1 0 1 1 0.999884 34.000000 39.000000 0.000000 0.000000 0.000000 0.000000 0.000000
1 0 1 1 0.999884 35.000000 39.000000 0.000000 0.000000 0.000000 0.000000 0.000000
1 0 1 1 0.999884 54.000000 39.000000 0.000000 0.000000 0.000000 0.000000 0.000000
1 0 1 1 0.999884 55.000000 39.000000 0.000000 0.000000 0.000000 0.000000 0.000000
1 0 1 1 0.999884 56.000000 39.000000 0.000000 0.000000 0.000000 0.000000 0.000000
1 0 1 1 0.999884 57.000000 39.000000 0.000000 0.000000 0.000000 0.000000 0.000000
1 0 1 1 0.999884 58.000000 39.000000 0.000000 0.000000 0.000000 0.000000 0.000000
1 0 1 1 0.999884 59.000000 39.000000 0.000000 0.000000 0.000000 0.000000 0.000000
1 0 1 1 0.999884 60.000000 39.000000 0.000000 0.000000 0.000000 0.000000 0.000000
1 0 1 1 0.999884 61.000000 39.000000 0.000000 0.000000 0.000000 0.000000 0.000000
1 0 1 1 0.999884 62.000000 39.000000 0.000000 0.000000 0.000000 0.000000 0.000000
1 0 1 1 0.999884 63.000000 39.000000 0.000000 0.000000 0.000000 0.000000 0.000000
1 0 1 1 0.999884 64.000000 39.000000 0.000000 0.000000 0.000000 0.000000 0.000000
1 0 1 1 0.999884 65.000000 39.000000 0.000000 0.000000 0.000000 0.000000 0.000000
1 0 1 1 0.999884 67.000000 39.000000 0.000000 0.000000 0.000000 0.000000 0.000000
1 0 1 1 0.999884 68.000000 39.000000 0.000000 0.000000 0.000000 0.000000 0.000000
1 0 1 1 0.999884 69.000000 39.000000 0.000000 0.000000 0.000000 0.000000 0.000000
1 0 1 1 0.999884 70.000000 39.000000 0.000000 0.000000 0.000000 0.000000 0.000000
1 0 1 1 0.999884 71.000000 39.000000 0.000000 0.000000 0.000000 0.000000 0.000000
1 0 1 1 0.999884 72.000000 39.000000 0.000000 0.000000 0.000000 0.000000 0.000000
1 0 1 1 0.999884 73.000000 39.000000 0.000000 0.000000 0.000000 0.000000 0.000000
1 0 1 1 0.999884 74.000000 39.000000 0.000000 0.000000 0.000000 0.000000 0.000000
1 0 1 1 0.999884 75.000000 39.000000 0.000000 0.000000 0.000000 0.000000 0.000000
1 0 1 1 0.999884 76.000000 39.000000 0.000000 0.000000 0.000000 0.000000 0.000000
1 0 1 1 0.999884 77.000000 39.000000 0.000000 0.000000 0.000000 0.000000 0.000000
1 0 1 1 0.999884 78.000000 39.000000 0.000000 0.000000 0.000000 0.000000 0.000000
1 0 1 1 0.999884 79.000000 39.000000 0.000000 0.000000 0.000000 0.000000 0.000000
1 0 1 1 0.999884 80.000000 39.000000 0.000000 0.000000 0.000000 0.000000 0.000000
1 0 1 1 0.999884 81.000000 39.000000 0.000000 0.000000 0.000000 0.000000 0.000000
1 0 1 1 0.999884 82.000000 39.000000 0.000000 0.000000 0.000000 0.000000 0.000000
1 0 1 1 0.999884 83.000000 39.000000 0.000000 0.000000 0.000000 0.000000 0.000000
1 0 1 1 0.999884 84.000000 39.000000 0.000000 0.000000 0.000000 0.000000 0.000000
1 0 1 1 0.999884 85.000000 39.000000 0.000000 0.000000 0.000000 0.000000 0.000000
1 0 1 1 0.999884 86.000000 39.000000 0.000000 0.000000 0.000000 0.000000 0.000000
1 0 1 1 0.999884 87.000000 39.000000 0.000000 0.000000 0.000000 0.000000 0.000000
1 0 1 1 0.999884 88.000000 39.000000 0.000000 0.000000 0.000000 0.000000 0.000000
1 0 1 1 0.999884 89.000000 39.000000 0.000000 0.000000 0.000000 0.000000 0.000000
1 0 1 1 0.999884 159.000000 39.000000 0.000000 0.000000 0.000000 0.000000 0.000000
1 0 1 1 0.999884 30.000000 40.000000 0.000000 0.000000 0.000000 0.000000 0.000000
1 0 1 1 0.999884 31.000000 40.000000 0.000000 0.000000 0.000000 0.000000 0.000000
1 0 1 1 0.999884 32.000000 40.000000 0.000000 0.000000 0.000000 0.000000 0.000000
1 0 1 1 0.999884 33.000000 40.000000 0.000000 0.000000 0.000000 0.000000 0.000000
1 0 1 1 0.999884 34.000000 40.000000 0.000000 0.000000 0.000000 0.000000 0.000000
1 0 1 1 0.999884 35.000000 40.000000 0.000000 0.000000 0.000000 0.000000 0.000000
1 0 1 1 0.999884 36.000000 40.000000 0.000000 0.000000 0.000000 0.000000 0.000000
1 0 1 1 0.999884 37.000000 40.000000 0.000000 0.000000 0.000000 0.000000 0.000000
1 0 1 1 0.999884 38.000000 40.000000 0.000000 0.000000 0.000000 0.000000 0.000000
1 0 1 1 0.999884 57.000000 40.000000 0.000000 0.000000 0.000000 0.000000 0.000000
1 0 1 1 0.999884 58.000000 40.000000 0.000000 0.000000 0.000000 0.000000 0.000000
1 0 1 1 0.999884 59.000000 40.000000 0.000000 0.000000 0.000000 0.000000 0.000000
1 0 1 1 0.999884 60.000000 40.000000 0.000000 0.000000 0.000000 0.000000 0.000000
1 0 1 1 0.999884 61.000000 40.000000 0.000000 0.000000 0.000000 0.000000 0.000000
1 0 1 1 0.999884 62.000000 40.000000 0.000000 0.000000 0.000000 0.000000 0.000000
1 0 1 1 0.999884 63.000000 40.000000 0.000000 0.000000 0.000000 0.000000 0.000000
1 0 1 1 0.999884 64.000000 40.000000 0.000000 0.000000 0.000000 0.000000 0.000000
1 0 1 1 0.999884 65.000000 40.000000 0.000000 0.000000 0.000000 0.000000 0.000000
1 0 1 1 0.999884 67.000000 40.000000 0.000000 0.000000 0.000000 0.000000 0.000000
1 0 1 1 0.999884 68.000000 40.000000 0.000000 0.000000 0.000000 0.000000 0.000000
1 0 1 1 0.999884 69.000000 40.000000 0.000000 0.000000 0.000000 0.000000 0.000000
1 0 1 1 0.999884 70.000000 40.000000 0.000000 0.000000 0.000000 0.000000 0.000000
1 0 1 1 0.999884 71.000000 40.000000 0.000000 0.000000 0.000000 0.000000 0.000000
1 0 1 1 0.999884 72.000000 40.000000 0.000000 0.000000 0.000000 0.000000 0.000000
1 0 1 1 0.999884 73.000000 40.000000 0.000000 0.000000 0.000000 0.000000 0.000000
1 0 1 1 0.999884 74.000000 40.000000 0.000000 0.000000 0.000000 0.000000 0.000000
1 0 1 1 0.999884 75.000000 40.000000 0.000000 0.000000 0.000000 0.000000 0.000000
1 0 1 1 0.999884 76.000000 40.000000 0.000000 0.000000 0.000000 0.000000 0.000000
1 0 1 1 0.999884 77.000000 40.000000 0.000000 0.000000 0.000000 0.000000 0.000000
1 0 1 1 0.999884 78.000000 40.000000 0.000000 0.000000 0.000000 0.000000 0.000000
1 0 1 1 0.999884 79.000000 40.000000 0.000000 0.000000 0.000000 0.000000 0.000000
1 0 1 1 0.999884 80.000000 40.000000 0.000000 0.000000 0.000000 0.000000 0.000000
1 0 1 1 0.999884 81.000000 40.000000 0.000000 0.000000 0.000000 0.000000 0.000000
1 0 1 1 0.999884 82.000000 40.000000 0.000000 0.000000 0.000000 0.000000 0.000000
1 0 1 1 0.999884 83.000000 40.000000 0.000000 0.000000 0.000000 0.000000 0.000000
1 0 1 1 0.999884 84.000000 40.000000 0.000000 0.000000 0.000000 0.000000 0.000000
1 0 1 1 0.999884 85.000000 40.000000 0.000000 0.000000 0.000000 0.000000 0.000000
1 0 1 1 0.999884 86.000000 40.000000 0.000000 0.000000 0.000000 0.000000 0.000000
1 0 1 1 0.999884 87.000000 40.000000 0.000000 0.000000 0.000000 0.000000 0.000000
1 0 1 1 0.999884 88.000000 40.000000 0.000000 0.000000 0.000000 0.000000 0.000000
1 0 1 1 0.999884 89.000000 40.000000 0.000000 0.000000 0.000000 0.000000 0.000000
1 0 1 1 0.999884 30.000000 41.000000 0.000000 0.000000 0.000000 0.000000 0.000000
1 0 1 1 0.999884 31.000000 41.000000 0.000000 0.000000 0.000000 0.000000 0.000000
1 0 1 1 0.999884 32.000000 41.000000 0.000000 0.000000 0.000000 0.000000 0.000000
1 0 1 1 0.999884 33.000000 41.000000 0.000000 0.000000 0.000000 0.000000 0.000000
1 0 1 1 0.999884 34.000000 41.000000 0.000000 0.000000 0.000000 0.000000 0.000000
1 0 1 1 0.999884 35.000000 41.000000 0.000000 0.000000 0.000000 0.000000 0.000000
1 0 1 1 0.999884 36.000000 41.000000 0.000000 0.000000 0.000000 0.000000 0.000000
1 0 1 1 0.999884 37.000000 41.000000 0.000000 0.000000 0.000000 0.000000 0.000000
1 0 1 1 0.999884 38.000000 41.000000 0.000000 0.000000 0.000000 0.000000 0.000000
1 0 1 1 0.999884 39.000000 41.000000 0.000000 0.000000 0.000000 0.000000 0.000000
1 0 1 1 0.999884 40.000000 41.000000 0.000000 0.000000 0.000000 0.000000 0.000000
1 0 1 1 0.999884 58.000000 41.000000 0.000000 0.000000 0.000000 0.000000 0.000000
1 0 1 1 0.999884 59.000000 41.000000 0.000000 0.000000 0.000000 0.000000 0.000000
1 0 1 1 0.999884 60.000000 41.000000 0.000000 0.000000 0.000000 0.000000 0.000000
1 0 1 1 0.999884 61.000000 41.000000 0.000000 0.000000 0.000000 0.000000 0.000000
1 0 1 1 0.999884 62.000000 41.000000 0.000000 0.000000 0.000000 0.000000 0.000000
1 0 1 1 0.999884 63.000000 41.000000 0.000000 0.000000 0.000000 0.000000 0.000000
1 0 1 1 0.999884 64.000000 41.000000 0.000000 0.000000 0.000000 0.000000 0.000000
1 0 1 1 0.999884 65.000000 41.000000 0.000000 0.000000 0.000000 0.000000 0.000000
1 0 1 1 0.999884 67.000000 41.000000 0.000000 0.000000 0.000000 0.000000 0.000000
1 0 1 1 0.999884 68.000000 41.000000 0.000000 0.000000 0.000000 0.000000 0.000000
1 0 1 1 0.999884 69.000000 41.000000 0.000000 0.000000 0.000000 0.000000 0.000000
1 0 1 1 0.999884 70.000000 41.000000 0.000000 0.000000 0.000000 0.000000 0.000000
1 0 1 1 0.999884 71.000000 41.000000 0.000000 0.000000 0.000000 0.000000 0.000000
1 0 1 1 0.999884 72.000000 41.000000 0.000000 0.000000 0.000000 0.000000 0.000000
1 0 1 1 0.999884 73.000000 41.000000 0.000000 0.000000 0.000000 0.000000 0.000000
1 0 1 1 0.999884 74.000000 41.000000 0.000000 0.000000 0.000000 0.000000 0.000000
1 0 1 1 0.999884 75.000000 41.000000 0.000000 0.000000 0.000000 0.000000 0.000000
1 0 1 1 0.999884 76.000000 41.000000 0.000000 0.000000 0.000000 0.000000 0.000000
1 0 1 1 0.999884 77.000000 41.000000 0.000000 0.000000 0.000000 0.000000 0.000000
1 0 1 1 0.999884 78.000000 41.000000 0.000000 0.000000 0.000000 0.000000 0.000000
1 0 1 1 0.999884 79.000000 41.000000 0.000000 0.000000 0.000000 0.000000 0.000000
1 0 1 1 0.999884 80.000000 41.000000 0.000000 0.000000 0.000000 0.000000 0.000000
1 0 1 1 0.999884 81.000000 41.000000 0.000000 0.000000 0.000000 0.000000 0.000000
1 0 1 1 0.999884 82.000000 41.000000 0.000000 0.000000 0.000000 0.000000 0.000000
1 0 1 1 0.999884 83.000000 41.000000 0.000000 0.000000 0.000000 0.000000 0.000000
1 0 1 1 0.999884 84.000000 41.000000 0.000000 0.000000 0.000000 0.000000 0.000000
1 0 1 1 0.999884 85.000000 41.000000 0.000000 0.000000 0.000000 0.000000 0.000000
1 0 1 1 0.999884 86.000000 41.000000 0.000000 0.000000 0.000000 0.000000 0.000000
1 0 1 1 0.999884 87.000000 41.000000 0.000000 0.000000 0.000000 0.000000 0.000000
1 0 1 1 0.999884 88.000000 41.000000 0.000000 0.000000 0.000000 0.000000 0.000000
1 0 1 1 0.999884 29.000000 42.000000 0.000000 0.000000 0.000000 0.000000 0.000000
1 0 1 1 0.999884 30.000000 42.000000 0.000000 0.000000 0.000000 0.000000 0.000000
1 0 1 1 0.999884 31.000000 42.000000 0.000000 0.000000 0.000000 0.000000 0.000000
1 0 1 1 0.999884 32.000000 42.000000 0.000000 0.000000 0.000000 0.000000 0.000000
1 0 1 1 0.999884 33.000000 42.000000 0.000000 0.000000 0.000000 0.000000 0.000000
1 0 1 1 0.999884 34.000000 42.000000 0.000000 0.000000 0.000000 0.000000 0.000000
1 0 1 1 0.999884 35.000000 42.000000 0.000000 0.000000 0.000000 0.000000 0.000000
1 0 1 1 0.999884 36.000000 42.000000 0.000000 0.000000 0.000000 0.000000 0.000000
1 0 1 1 0.999884 37.000000 42.000000 0.000000 0.000000 0.000000 0.000000 0.000000
1 0 1 1 0.999884 38.000000 42.000000 0.000000 0.000000 0.000000 0.000000 0.000000
1 0 1 1 0.999884 39.000000 42.000000 0.000000 0.000000 0.000000 0.000000 0.000000
1 0 1 1 0.999884 40.000000 42.000000 0.000000 0.000000 0.000000 0.000000 0.000000
1 0 1 1 0.999884 59.000000 42.000000 0.000000 0.000000 0.000000 0.000000 0.000000
1 0 1 1 0.999884 60.000000 42.000000 0.000000 0.000000 0.000000 0.000000 0.000000
1 0 1 1 0.999884 61.000000 42.000000 0.000000 0.000000 0.000000 0.000000 0.000000
1 0 1 1 0.999884 62.000000 42.000000 0.000000 0.000000 0.000000 0.000000 0.000000
1 0 1 1 0.999884 63.000000 42.000000 0.000000 0.000000 0.000000 0.000000 0.000000
1 0 1 1 0.999884 64.000000 42.000000 0.000000 0.000000 0.000000 0.000000 0.000000
1 0 1 1 0.999884 65.000000 42.000000 0.000000 0.000000 0.000000 0.000000 0.000000
1 0 1 1 0.999884 67.000000 42.000000 0.000000 0.000000 0.000000 0.000000 0.000000
1 0 1 1 0.999884 68.000000 42.000000 0.000000 0.000000 0.000000 0.000000 0.000000
1 0 1 1 0.999884 69.000000 42.000000 0.000000 0.000000 0.000000 0.000000 0.000000
1 0 1 1 0.999884 70.000000 42.000000 0.000000 0.000000 0.000000 0.000000 0.000000
1 0 1 1 0.999884 71.000000 42.000000 0.000000 0.000000 0.000000 0.000000 0.000000
1 0 1 1 0.999884 72.000000 42.000000 0.000000 0.000000 0.000000 0.000000 0.000000
1 0 1 1 0.999884 73.000000 42.000000 0.000000 0.000000 0.000000 0.000000 0.000000
1 0 1 1 0.999884 74.000000 42.000000 0.000000 0.000000 0.000000 0.000000 0.000000
1 0 1 1 0.999884 75.000000 42.000000 0.000000 0.000000 0.000000 0.000000 0.000000
1 0 1 1 0.999884 76.000000 42.000000 0.000000 0.000000 0.000000 0.000000 0.000000
1 0 1 1 0.999884 77.000000 42.000000 0.000000 0.000000 0.000000 0.000000 0.000000
1 0 1 1 0.999884 78.000000 42.000000 0.000000 0.000000 0.000000 0.000000 0.000000
1 0 1 1 0.999884 79.000000 42.000000 0.000000 0.000000 0.000000 0.000000 0.000000
1 0 1 1 0.999884 80.000000 42.000000 0.000000 0.000000 0.000000 0.000000 0.000000
1 0 1 1 0.999884 81.000000 42.000000 0.000000 0.000000 0.000000 0.000000 0.000000
1 0 1 1 0.999884 82.000000 42.000000 0.000000 0.000000 0.000000 0.000000 0.000000
1 0 1 1 0.999884 83.000000 42.000000 0.000000 0.000000 0.000000 0.000000 0.000000
1 0 1 1 0.999884 84.000000 42.000000 0.000000 0.000000 0.000000 0.000000 0.000000
1 0 1 1 0.999884 85.000000 42.000000 0.000000 0.000000 0.000000 0.000000 0.000000
1 0 1 1 0.999884 86.000000 42.000000 0.000000 0.000000 0.000000 0.000000 0.000000
1 0 1 1 0.999884 154.000000 42.000000 0.000000 0.000000 0.000000 0.000000 0.000000
1 0 1 1 0.999884 155.000000 42.000000 0.000000 0.000000 0.000000 0.000000 0.000000
1 0 1 1 0.999884 156.000000 42.000000 0.000000 0.000000 0.000000 0.000000 0.000000
1 0 1 1 0.999884 29.000000 43.000000 0.000000 0.000000 0.000000 0.000000 0.000000
1 0 1 1 0.999884 30.000000 43.000000 0.000000 0.000000 0.000000 0.000000 0.000000
1 0 1 1 0.999884 31.000000 43.000000 0.000000 0.000000 0.000000 0.000000 0.000000
1 0 1 1 0.999884 32.000000 43.000000 0.000000 0.000000 0.000000 0.000000 0.000000
1 0 1 1 0.999884 33.000000 43.000000 0.000000 0.000000 0.000000 0.000000 0.000000
1 0 1 1 0.999884 34.000000 43.000000 0.000000 0.000000 0.000000 0.000000 0.000000
1 0 1 1 0.999884 35.000000 43.000000 0.000000 0.000000 0.000000 0.000000 0.000000
1 0 1 1 0.999884 36.000000 43.000000 0.000000 0.000000 0.000000 0.000000 0.000000
1 0 1 1 0.999884 37.000000 43.000000 0.000000 0.000000 0.000000 0.000000 0.000000
1 0 1 1 0.999884 38.000000 43.000000 0.000000 0.000000 0.000000 0.000000 0.000000
1 0 1 1 0.999884 39.000000 43.000000 0.000000 0.000000 0.000000 0.000000 0.000000
1 0 1 1 0.999884 40.000000 43.000000 0.000000 0.000000 0.000000 0.000000 0.000000
1 0 1 1 0.999884 41.000000 43.000000 0.000000 0.000000 0.000000 0.000000 0.000000
1 0 1 1 0.999884 59.000000 43.000000 0.000000 0.000000 0.000000 0.000000 0.000000
1 0 1 1 0.999884 60.000000 43.000000 0.000000 0.000000 0.000000 0.000000 0.000000
1 0 1 1 0.999884 61.000000 43.000000 0.000000 0.000000 0.000000 0.000000 0.000000
1 0 1 1 0.999884 62.000000 43.000000 0.000000 0.000000 0.000000 0.000000 0.000000
1 0 1 1 0.999884 63.000000 43.000000 0.000000 0.000000 0.000000 0.000000 0.000000
1 0 1 1 0.999884 64.000000 43.000000 0.000000 0.000000 0.000000 0.000000 0.000000
1 0 1 1 0.999884 65.000000 43.000000 0.000000 0.000000 0.000000 0.000000 0.000000
1 0 1 1 0.999884 67.000000 43.000000 0.000000 0.000000 0.000000 0.000000 0.000000
1 0 1 1 0.999884 68.000000 43.000000 0.000000 0.000000 0.000000 0.000000 0.000000
1 0 1 1 0.999884 69.000000 43.000000 0.000000 0.000000 0.000000 0.000000 0.000000
1 0 1 1 0.999884 70.000000 43.000000 0.000000 0.000000 0.000000 0.000000 0.000000
1 0 1 1 0.999884 71.000000 43.000000 0.000000 0.000000 0.000000 0.000000 0.000000
1 0 1 1 0.999884 72.000000 43.000000 0.000000 0.000000 0.000000 0.000000 0.000000
1 0 1 1 0.999884 73.000000 43.000000 0.000000 0.000000 0.000000 0.000000 0.000000
1 0 1 1 0.999884 74.000000 43.000000 0.000000 0.000000 0.000000 0.000000 0.000000
1 0 1 1 0.999884 75.000000 43.000000 0.000000 0.000000 0.000000 0.000000 0.000000
1 0 1 1 0.999884 76.000000 43.000000 0.000000 0.000000 0.000000 0.000000 0.000000
1 0 1 1 0.999884 77.000000 43.000000 0.000000 0.000000 0.000000 0.000000 0.000000
1 0 1 1 0.999884 78.000000 43.000000 0.000000 0.000000 0.000000 0.000000 0.000000
1 0 1 1 0.999884 79.000000 43.000000 0.000000 0.000000 0.000000 0.000000 0.000000
1 0 1 1 0.999884 80.000000 43.000000 0.000000 0.000000 0.000000 0.000000 0.000000
1 0 1 1 0.999884 81.000000 43.000000 0.000000 0.000000 0.000000 0.000000 0.000000
1 0 1 1 0.999884 82.000000 43.000000 0.000000 0.000000 0.000000 0.000000 0.000000
1 0 1 1 0.999884 83.000000 43.000000 0.000000 0.000000 0.000000 0.000000 0.000000
1 0 1 1 0.999884 84.000000 43.000000 0.000000 0.000000 0.000000 0.000000 0.000000
1 0 1 1 0.999884 151.000000 43.000000 0.000000 0.000000 0.000000 0.000000 0.000000
1 0 1 1 0.999884 152.000000 43.000000 0.000000 0.000000 0.000000 0.000000 0.000000
1 0 1 1 0.999884 153.000000 43.000000 0.000000 0.000000 0.000000 0.000000 0.000000
1 0 1 1 0.999884 154.000000 43.000000 0.000000 0.000000 0.000000 0.000000 0.000000
1 0 1 1 0.999884 155.000000 43.000000 0.000000 0.000000 0.000000 0.000000 0.000000
1 0 1 1 0.999884 157.000000 43.000000 0.000000 0.000000 0.000000 0.000000 0.000000
1 0 1 1 0.999884 29.000000 44.000000 0.000000 0.000000 0.000000 0.000000 0.000000
1 0 1 1 0.999884 30.000000 44.000000 0.000000 0.000000 0.000000 0.000000 0.000000
1 0 1 1 0.999884 31.000000 44.000000 0.000000 0.000000 0.000000 0.000000 0.000000
1 0 1 1 0.999884 32.000000 44.000000 0.000000 0.000000 0.000000 0.000000 0.000000
1 0 1 1 0.999884 33.000000 44.000000 0.000000 0.000000 0.000000 0.000000 0.000000
1 0 1 1 0.999884 34.000000 44.000000 0.000000 0.000000 0.000000 0.000000 0.000000
1 0 1 1 0.999884 35.000000 44.000000 0.000000 0.000000 0.000000 0.000000 0.000000
1 0 1 1 0.999884 36.000000 44.000000 0.000000 0.000000 0.000000 0.000000 0.000000
1 0 1 1 0.999884 37.000000 44.000000 0.000000 0.000000 0.000000 0.000000 0.000000
1 0 1 1 0.999884 38.000000 44.000000 0.000000 0.000000 0.000000 0.000000 0.000000
1 0 1 1 0.999884 39.000000 44.000000 0.000000 0.000000 0.000000 0.000000 0.000000
1 0 1 1 0.999884 40.000000 44.000000 0.000000 0.000000 0.000000 0.000000 0.000000
1 0 1 1 0.999884 41.000000 44.000000 0.000000 0.000000 0.000000 0.000000 0.000000
1 0 1 1 0.999884 60.000000 44.000000 0.000000 0.000000 0.000000 0.000000 0.000000
1 0 1 1 0.999884 61.000000 44.000000 0.000000 0.000000 0.000000 0.000000 0.000000
1 0 1 1 0.999884 62.000000 44.000000 0.000000 0.000000 0.000000 0.000000 0.000000
1 0 1 1 0.999884 63.000000 44.000000 0.000000 0.000000 0.000000 0.000000 0.000000
1 0 1 1 0.999884 64.000000 44.000000 0.000000 0.000000 0.000000 0.000000 0.000000
1 0 1 1 0.999884 67.000000 44.000000 0.000000 0.000000 0.000000 0.000000 0.000000
1 0 1 1 0.999884 68.000000 44.000000 0.000000 0.000000 0.000000 0.000000 0.000000
1 0 1 1 0.999884 69.000000 44.000000 0.000000 0.000000 0.000000 0.000000 0.000000
1 0 1 1 0.999884 70.000000 44.000000 0.000000 0.000000 0.000000 0.000000 0.000000
1 0 1 1 0.999884 71.000000 44.000000 0.000000 0.000000 0.000000 0.000000 0.000000
1 0 1 1 0.999884 72.000000 44.000000 0.000000 0.000000 0.000000 0.000000 0.000000
1 0 1 1 0.999884 73.000000 44.000000 0.000000 0.000000 0.000000 0.000000 0.000000
1 0 1 1 0.999884 74.000000 44.000000 0.000000 0.000000 0.000000 0.000000 0.000000
1 0 1 1 0.999884 75.000000 44.000000 0.000000 0.000000 0.000000 0.000000 0.000000
1 0 1 1 0.999884 76.000000 44.000000 0.000000 0.000000 0.000000 0.000000 0.000000
1 0 1 1 0.999884 77.000000 44.000000 0.000000 0.000000 0.000000 0.000000 0.000000
1 0 1 1 0.999884 78.000000 44.000000 0.000000 0.000000 0.000000 0.000000 0.000000
1 0 1 1 0.999884 79.000000 44.000000 0.000000 0.000000 0.000000 0.000000 0.000000
1 0 1 1 0.999884 80.000000 44.000000 0.000000 0.000000 0.000000 0.000000 0.000000
1 0 1 1 0.999884 81.000000 44.000000 0.000000 0.000000 0.000000 0.000000 0.000000
1 0 1 1 0.999884 82.000000 44.000000 0.000000 0.000000 0.000000 0.000000 0.000000
1 0 1 1 0.999884 148.000000 44.000000 0.000000 0.000000 0.000000 0.000000 0.000000
1 0 1 1 0.999884 149.000000 44.000000 0.000000 0.000000 0.000000 0.000000 0.000000
1 0 1 1 0.999884 150.000000 44.000000 0.000000 0.000000 0.000000 0.000000 0.000000
1 0 1 1 0.999884 151.000000 44.000000 0.000000 0.000000 0.000000 0.000000 0.000000
1 0 1 1 0.999884 152.000000 44.000000 0.000000 0.000000 0.000000 0.000000 0.000000
1 0 1 1 0.999884 153.000000 44.000000 0.000000 0.000000 0.000000 0.000000 0.000000
1 0 1 1 0.999884 154.000000 44.000000 0.000000 0.000000 0.000000 0.000000 0.000000
1 0 1 1 0.999884 28.000000 45.000000 0.000000 0.000000 0.000000 0.000000 0.000000
1 0 1 1 0.999884 29.000000 45.000000 0.000000 0.000000 0.000000 0.000000 0.000000
1 0 1 1 0.999884 30.000000 45.000000 0.000000 0.000000 0.000000 0.000000 0.000000
1 0 1 1 0.999884 31.000000 45.000000 0.000000 0.000000 0.000000 0.000000 0.000000
1 0 1 1 0.999884 32.000000 45.000000 0.000000 0.000000 0.000000 0.000000 0.000000
1 0 1 1 0.999884 33.000000 45.000000 0.000000 0.000000 0.000000 0.000000 0.000000
1 0 1 1 0.999884 34.000000 45.000000 0.000000 0.000000 0.000000 0.000000 0.000000
1 0 1 1 0.999884 35.000000 45.000000 0.000000 0.000000 0.000000 0.000000 0.000000
1 0 1 1 0.999884 36.000000 45.000000 0.000000 0.000000 0.000000 0.000000 0.000000
1 0 1 1 0.999884 37.000000 45.000000 0.000000 0.000000 0.000000 0.000000 0.000000
1 0 1 1 0.999884 38.000000 45.000000 0.000000 0.000000 0.000000 0.000000 0.000000
1 0 1 1 0.999884 39.000000 45.000000 0.000000 0.000000 0.000000 0.000000 0.000000
1 0 1 1 0.999884 40.000000 45.000000 0.000000 0.000000 0.000000 0.000000 0.000000
1 0 1 1 0.999884 41.000000 45.000000 0.000000 0.000000 0.000000 0.000000 0.000000
1 0 1 1 0.999884 60.000000 45.000000 0.000000 0.000000 0.000000 0.000000 0.000000
1 0 1 1 0.999884 61.000000 45.000000 0.000000 0.000000 0.000000 0.000000 0.000000
1 0 1 1 0.999884 62.000000 45.000000 0.000000 0.000000 0.000000 0.000000 0.000000
1 0 1 1 0.999884 63.000000 45.000000 0.000000 0.000000 0.000000 0.000000 0.000000
1 0 1 1 0.999884 64.000000 45.000000 0.000000 0.000000 0.000000 0.000000 0.000000
1 0 1 1 0.999884 66.000000 45.000000 0.000000 0.000000 0.000000 0.000000 0.000000
1 0 1 1 0.999884 67.000000 45.000000 0.000000 0.000000 0.000000 0.000000 0.000000
1 0 1 1 0.999884 68.000000 45.000000 0.000000 0.000000 0.000000 0.000000 0.000000
1 0 1 1 0.999884 69.000000 45.000000 0.000000 0.000000 0.000000 0.000000 0.000000
1 0 1 1 0.999884 70.000000 45.000000 0.000000 0.000000 0.000000 0.000000 0.000000
1 0 1 1 0.999884 71.000000 45.000000 0.000000 0.000000 0.000000 0.000000 0.000000
1 0 1 1 0.999884 72.000000 45.000000 0.000000 0.000000 0.000000 0.000000 0.000000
1 0 1 1 0.999884 73.000000 45.000000 0.000000 0.000000 0.000000 0.000000 0.000000
1 0 1 1 0.999884 74.000000 45.000000 0.000000 0.000000 0.000000 0.000000 0.000000
1 0 1 1 0.999884 75.000000 45.000000 0.000000 0.000000 0.000000 0.000000 0.000000
[...]
1 0 1 1 0.999884 41.000000 154.000000 0.000000 0.000000 0.000000 0.000000 0.000000
1 0 1 1 0.999884 42.000000 154.000000 0.000000 0.000000 0.000000 0.000000 0.000000
1 0 1 1 0.999884 43.000000 154.000000 0.000000 0.000000 0.000000 0.000000 0.000000
1 0 1 1 0.999884 44.000000 154.000000 0.000000 0.000000 0.000000 0.000000 0.000000
1 0 1 1 0.999884 45.000000 154.000000 0.000000 0.000000 0.000000 0.000000 0.000000
1 0 1 1 0.999884 46.000000 154.000000 0.000000 0.000000 0.000000 0.000000 0.000000
1 0 1 1 0.999884 47.000000 154.000000 0.000000 0.000000 0.000000 0.000000 0.000000
1 0 1 1 0.999884 48.000000 154.000000 0.000000 0.000000 0.000000 0.000000 0.000000
1 0 1 1 0.999884 49.000000 154.000000 0.000000 0.000000 0.000000 0.000000 0.000000
1 0 1 1 0.999884 50.000000 154.000000 0.000000 0.000000 0.000000 0.000000 0.000000
1 0 1 1 0.999884 51.000000 154.000000 0.000000 0.000000 0.000000 0.000000 0.000000
1 0 1 1 0.999884 52.000000 154.000000 0.000000 0.000000 0.000000 0.000000 0.000000
1 0 1 1 0.999884 53.000000 154.000000 0.000000 0.000000 0.000000 0.000000 0.000000
1 0 1 1 0.999884 54.000000 154.000000 0.000000 0.000000 0.000000 0.000000 0.000000
1 0 1 1 0.999884 55.000000 154.000000 0.000000 0.000000 0.000000 0.000000 0.000000
1 0 1 1 0.999884 56.000000 154.000000 0.000000 0.000000 0.000000 0.000000 0.000000
1 0 1 1 0.999884 57.000000 154.000000 0.000000 0.000000 0.000000 0.000000 0.000000
1 0 1 1 0.999884 58.000000 154.000000 0.000000 0.000000 0.000000 0.000000 0.000000
1 0 1 1 0.999884 59.000000 154.000000 0.000000 0.000000 0.000000 0.000000 0.000000
1 0 1 1 0.999884 60.000000 154.000000 0.000000 0.000000 0.000000 0.000000 0.000000
1 0 1 1 0.999884 61.000000 154.000000 0.000000 0.000000 0.000000 0.000000 0.000000
1 0 1 1 0.999884 78.000000 154.000000 0.000000 0.000000 0.000000 0.000000 0.000000
1 0 1 1 0.999884 117.000000 154.000000 0.000000 0.000000 0.000000 0.000000 0.000000
1 0 1 1 0.999884 118.000000 154.000000 0.000000 0.000000 0.000000 0.000000 0.000000
1 0 1 1 0.999884 119.000000 154.000000 0.000000 0.000000 0.000000 0.000000 0.000000
1 0 1 1 0.999884 120.000000 154.000000 0.000000 0.000000 0.000000 0.000000 0.000000
1 0 1 1 0.999884 121.000000 154.000000 0.000000 0.000000 0.000000 0.000000 0.000000
1 0 1 1 0.999884 122.000000 154.000000 0.000000 0.000000 0.000000 0.000000 0.000000
1 0 1 1 0.999884 123.000000 154.000000 0.000000 0.000000 0.000000 0.000000 0.000000
1 0 1 1 0.999884 124.000000 154.000000 0.000000 0.000000 0.000000 0.000000 0.000000
1 0 1 1 0.999884 125.000000 154.000000 0.000000 0.000000 0.000000 0.000000 0.000000
1 0 1 1 0.999884 126.000000 154.000000 0.000000 0.000000 0.000000 0.000000 0.000000
1 0 1 1 0.999884 127.000000 154.000000 0.000000 0.000000 0.000000 0.000000 0.000000
1 0 1 1 0.999884 128.000000 154.000000 0.000000 0.000000 0.000000 0.000000 0.000000
1 0 1 1 0.999884 129.000000 154.000000 0.000000 0.000000 0.000000 0.000000 0.000000
1 0 1 1 0.999884 130.000000 154.000000 0.000000 0.000000 0.000000 0.000000 0.000000
1 0 1 1 0.999884 131.000000 154.000000 0.000000 0.000000 0.000000 0.000000 0.000000
1 0 1 1 0.999884 132.000000 154.000000 0.000000 0.000000 0.000000 0.000000 0.000000
1 0 1 1 0.999884 133.000000 154.000000 0.000000 0.000000 0.000000 0.000000 0.000000
1 0 1 1 0.999884 134.000000 154.000000 0.000000 0.000000 0.000000 0.000000 0.000000
1 0 1 1 0.999884 135.000000 154.000000 0.000000 0.000000 0.000000 0.000000 0.000000
1 0 1 1 0.999884 136.000000 154.000000 0.000000 0.000000 0.000000 0.000000 0.000000
1 0 1 1 0.999884 137.000000 154.000000 0.000000 0.000000 0.000000 0.000000 0.000000
1 0 1 1 0.999884 138.000000 154.000000 0.000000 0.000000 0.000000 0.000000 0.000000
1 0 1 1 0.999884 139.000000 154.000000 0.000000 0.000000 0.000000 0.000000 0.000000
1 0 1 1 0.999884 140.000000 154.000000 0.000000 0.000000 0.000000 0.000000 0.000000
1 0 1 1 0.999884 141.000000 154.000000 0.000000 0.000000 0.000000 0.000000 0.000000
1 0 1 1 0.999884 142.000000 154.000000 0.000000 0.000000 0.000000 0.000000 0.000000
1 0 1 1 0.999884 143.000000 154.000000 0.000000 0.000000 0.000000 0.000000 0.000000
1 0 1 1 0.999884 41.000000 155.000000 0.000000 0.000000 0.000000 0.000000 0.000000
1 0 1 1 0.999884 42.000000 155.000000 0.000000 0.000000 0.000000 0.000000 0.000000
1 0 1 1 0.999884 43.000000 155.000000 0.000000 0.000000 0.000000 0.000000 0.000000
1 0 1 1 0.999884 44.000000 155.000000 0.000000 0.000000 0.000000 0.000000 0.000000
1 0 1 1 0.999884 45.000000 155.000000 0.000000 0.000000 0.000000 0.000000 0.000000
1 0 1 1 0.999884 46.000000 155.000000 0.000000 0.000000 0.000000 0.000000 0.000000
1 0 1 1 0.999884 47.000000 155.000000 0.000000 0.000000 0.000000 0.000000 0.000000
1 0 1 1 0.999884 48.000000 155.000000 0.000000 0.000000 0.000000 0.000000 0.000000
1 0 1 1 0.999884 49.000000 155.000000 0.000000 0.000000 0.000000 0.000000 0.000000
1 0 1 1 0.999884 50.000000 155.000000 0.000000 0.000000 0.000000 0.000000 0.000000
1 0 1 1 0.999884 51.000000 155.000000 0.000000 0.000000 0.000000 0.000000 0.000000
1 0 1 1 0.999884 52.000000 155.000000 0.000000 0.000000 0.000000 0.000000 0.000000
1 0 1 1 0.999884 53.000000 155.000000 0.000000 0.000000 0.000000 0.000000 0.000000
1 0 1 1 0.999884 54.000000 155.000000 0.000000 0.000000 0.000000 0.000000 0.000000
1 0 1 1 0.999884 55.000000 155.000000 0.000000 0.000000 0.000000 0.000000 0.000000
1 0 1 1 0.999884 56.000000 155.000000 0.000000 0.000000 0.000000 0.000000 0.000000
1 0 1 1 0.999884 57.000000 155.000000 0.000000 0.000000 0.000000 0.000000 0.000000
1 0 1 1 0.999884 58.000000 155.000000 0.000000 0.000000 0.000000 0.000000 0.000000
1 0 1 1 0.999884 59.000000 155.000000 0.000000 0.000000 0.000000 0.000000 0.000000
1 0 1 1 0.999884 60.000000 155.000000 0.000000 0.000000 0.000000 0.000000 0.000000
1 0 1 1 0.999884 61.000000 155.000000 0.000000 0.000000 0.000000 0.000000 0.000000
1 0 1 1 0.999884 78.000000 155.000000 0.000000 0.000000 0.000000 0.000000 0.000000
1 0 1 1 0.999884 117.000000 155.000000 0.000000 0.000000 0.000000 0.000000 0.000000
1 0 1 1 0.999884 118.000000 155.000000 0.000000 0.000000 0.000000 0.000000 0.000000
1 0 1 1 0.999884 119.000000 155.000000 0.000000 0.000000 0.000000 0.000000 0.000000
1 0 1 1 0.999884 120.000000 155.000000 0.000000 0.000000 0.000000 0.000000 0.000000
1 0 1 1 0.999884 121.000000 155.000000 0.000000 0.000000 0.000000 0.000000 0.000000
1 0 1 1 0.999884 122.000000 155.000000 0.000000 0.000000 0.000000 0.000000 0.000000
1 0 1 1 0.999884 123.000000 155.000000 0.000000 0.000000 0.000000 0.000000 0.000000
1 0 1 1 0.999884 124.000000 155.000000 0.000000 0.000000 0.000000 0.000000 0.000000
1 0 1 1 0.999884 125.000000 155.000000 0.000000 0.000000 0.000000 0.000000 0.000000
1 0 1 1 0.999884 126.000000 155.000000 0.000000 0.000000 0.000000 0.000000 0.000000
1 0 1 1 0.999884 127.000000 155.000000 0.000000 0.000000 0.000000 0.000000 0.000000
1 0 1 1 0.999884 128.000000 155.000000 0.000000 0.000000 0.000000 0.000000 0.000000
1 0 1 1 0.999884 129.000000 155.000000 0.000000 0.000000 0.000000 0.000000 0.000000
1 0 1 1 0.999884 130.000000 155.000000 0.000000 0.000000 0.000000 0.000000 0.000000
1 0 1 1 0.999884 131.000000 155.000000 0.000000 0.000000 0.000000 0.000000 0.000000
1 0 1 1 0.999884 132.000000 155.000000 0.000000 0.000000 0.000000 0.000000 0.000000
1 0 1 1 0.999884 133.000000 155.000000 0.000000 0.000000 0.000000 0.000000 0.000000
1 0 1 1 0.999884 134.000000 155.000000 0.000000 0.000000 0.000000 0.000000 0.000000
1 0 1 1 0.999884 135.000000 155.000000 0.000000 0.000000 0.000000 0.000000 0.000000
1 0 1 1 0.999884 136.000000 155.000000 0.000000 0.000000 0.000000 0.000000 0.000000
1 0 1 1 0.999884 137.000000 155.000000 0.000000 0.000000 0.000000 0.000000 0.000000
1 0 1 1 0.999884 138.000000 155.000000 0.000000 0.000000 0.000000 0.000000 0.000000
1 0 1 1 0.999884 139.000000 155.000000 0.000000 0.000000 0.000000 0.000000 0.000000
1 0 1 1 0.999884 140.000000 155.000000 0.000000 0.000000 0.000000 0.000000 0.000000
1 0 1 1 0.999884 141.000000 155.000000 0.000000 0.000000 0.000000 0.000000 0.000000
1 0 1 1 0.999884 142.000000 155.000000 0.000000 0.000000 0.000000 0.000000 0.000000
1 0 1 1 0.999884 143.000000 155.000000 0.000000 0.000000 0.000000 0.000000 0.000000
1 0 1 1 0.999884 144.000000 155.000000 0.000000 0.000000 0.000000 0.000000 0.000000
1 0 1 1 0.999884 50.000000 156.000000 0.000000 0.000000 0.000000 0.000000 0.000000
1 0 1 1 0.999884 51.000000 156.000000 0.000000 0.000000 0.000000 0.000000 0.000000
1 0 1 1 0.999884 52.000000 156.000000 0.000000 0.000000 0.000000 0.000000 0.000000
1 0 1 1 0.999884 53.000000 156.000000 0.000000 0.000000 0.000000 0.000000 0.000000
1 0 1 1 0.999884 54.000000 156.000000 0.000000 0.000000 0.000000 0.000000 0.000000
1 0 1 1 0.999884 55.000000 156.000000 0.000000 0.000000 0.000000 0.000000 0.000000
1 0 1 1 0.999884 56.000000 156.000000 0.000000 0.000000 0.000000 0.000000 0.000000
1 0 1 1 0.999884 57.000000 156.000000 0.000000 0.000000 0.000000 0.000000 0.000000
1 0 1 1 0.999884 58.000000 156.000000 0.000000 0.000000 0.000000 0.000000 0.000000
1 0 1 1 0.999884 59.000000 156.000000 0.000000 0.000000 0.000000 0.000000 0.000000
1 0 1 1 0.999884 60.000000 156.000000 0.000000 0.000000 0.000000 0.000000 0.000000
1 0 1 1 0.999884 78.000000 156.000000 0.000000 0.000000 0.000000 0.000000 0.000000
1 0 1 1 0.999884 116.000000 156.000000 0.000000 0.000000 0.000000 0.000000 0.000000
1 0 1 1 0.999884 117.000000 156.000000 0.000000 0.000000 0.000000 0.000000 0.000000
1 0 1 1 0.999884 118.000000 156.000000 0.000000 0.000000 0.000000 0.000000 0.000000
1 0 1 1 0.999884 119.000000 156.000000 0.000000 0.000000 0.000000 0.000000 0.000000
1 0 1 1 0.999884 120.000000 156.000000 0.000000 0.000000 0.000000 0.000000 0.000000
1 0 1 1 0.999884 121.000000 156.000000 0.000000 0.000000 0.000000 0.000000 0.000000
1 0 1 1 0.999884 122.000000 156.000000 0.000000 0.000000 0.000000 0.000000 0.000000
1 0 1 1 0.999884 123.000000 156.000000 0.000000 0.000000 0.000000 0.000000 0.000000
1 0 1 1 0.999884 124.000000 156.000000 0.000000 0.000000 0.000000 0.000000 0.000000
1 0 1 1 0.999884 125.000000 156.000000 0.000000 0.000000 0.000000 0.000000 0.000000
1 0 1 1 0.999884 126.000000 156.000000 0.000000 0.000000 0.000000 0.000000 0.000000
1 0 1 1 0.999884 127.000000 156.000000 0.000000 0.000000 0.000000 0.000000 0.000000
1 0 1 1 0.999884 128.000000 156.000000 0.000000 0.000000 0.000000 0.000000 0.000000
1 0 1 1 0.999884 129.000000 156.000000 0.000000 0.000000 0.000000 0.000000 0.000000
1 0 1 1 0.999884 130.000000 156.000000 0.000000 0.000000 0.000000 0.000000 0.000000
1 0 1 1 0.999884 131.000000 156.000000 0.000000 0.000000 0.000000 0.000000 0.000000
1 0 1 1 0.999884 132.000000 156.000000 0.000000 0.000000 0.000000 0.000000 0.000000
1 0 1 1 0.999884 133.000000 156.000000 0.000000 0.000000 0.000000 0.000000 0.000000
1 0 1 1 0.999884 134.000000 156.000000 0.000000 0.000000 0.000000 0.000000 0.000000
1 0 1 1 0.999884 135.000000 156.000000 0.000000 0.000000 0.000000 0.000000 0.000000
1 0 1 1 0.999884 136.000000 156.000000 0.000000 0.000000 0.000000 0.000000 0.000000
1 0 1 1 0.999884 137.000000 156.000000 0.000000 0.000000 0.000000 0.000000 0.000000
1 0 1 1 0.999884 138.000000 156.000000 0.000000 0.000000 0.000000 0.000000 0.000000
1 0 1 1 0.999884 139.000000 156.000000 0.000000 0.000000 0.000000 0.000000 0.000000
1 0 1 1 0.999884 140.000000 156.000000 0.000000 0.000000 0.000000 0.000000 0.000000
1 0 1 1 0.999884 141.000000 156.000000 0.000000 0.000000 0.000000 0.000000 0.000000
1 0 1 1 0.999884 142.000000 156.000000 0.000000 0.000000 0.000000 0.000000 0.000000
1 0 1 1 0.999884 143.000000 156.000000 0.000000 0.000000 0.000000 0.000000 0.000000
1 0 1 1 0.999884 144.000000 156.000000 0.000000 0.000000 0.000000 0.000000 0.000000
1 0 1 1 0.999884 145.000000 156.000000 0.000000 0.000000 0.000000 0.000000 0.000000
1 0 1 1 0.999884 56.000000 157.000000 0.000000 0.000000 0.000000 0.000000 0.000000
1 0 1 1 0.999884 57.000000 157.000000 0.000000 0.000000 0.000000 0.000000 0.000000
1 0 1 1 0.999884 58.000000 157.000000 0.000000 0.000000 0.000000 0.000000 0.000000
1 0 1 1 0.999884 59.000000 157.000000 0.000000 0.000000 0.000000 0.000000 0.000000
1 0 1 1 0.999884 60.000000 157.000000 0.000000 0.000000 0.000000 0.000000 0.000000
1 0 1 1 0.999884 78.000000 157.000000 0.000000 0.000000 0.000000 0.000000 0.000000
1 0 1 1 0.999884 116.000000 157.000000 0.000000 0.000000 0.000000 0.000000 0.000000
1 0 1 1 0.999884 117.000000 157.000000 0.000000 0.000000 0.000000 0.000000 0.000000
1 0 1 1 0.999884 118.000000 157.000000 0.000000 0.000000 0.000000 0.000000 0.000000
1 0 1 1 0.999884 119.000000 157.000000 0.000000 0.000000 0.000000 0.000000 0.000000
1 0 1 1 0.999884 120.000000 157.000000 0.000000 0.000000 0.000000 0.000000 0.000000
1 0 1 1 0.999884 121.000000 157.000000 0.000000 0.000000 0.000000 0.000000 0.000000
1 0 1 1 0.999884 122.000000 157.000000 0.000000 0.000000 0.000000 0.000000 0.000000
1 0 1 1 0.999884 123.000000 157.000000 0.000000 0.000000 0.000000 0.000000 0.000000
1 0 1 1 0.999884 124.000000 157.000000 0.000000 0.000000 0.000000 0.000000 0.000000
1 0 1 1 0.999884 125.000000 157.000000 0.000000 0.000000 0.000000 0.000000 0.000000
1 0 1 1 0.999884 126.000000 157.000000 0.000000 0.000000 0.000000 0.000000 0.000000
1 0 1 1 0.999884 127.000000 157.000000 0.000000 0.000000 0.000000 0.000000 0.000000
1 0 1 1 0.999884 128.000000 157.000000 0.000000 0.000000 0.000000 0.000000 0.000000
1 0 1 1 0.999884 129.000000 157.000000 0.000000 0.000000 0.000000 0.000000 0.000000
1 0 1 1 0.999884 130.000000 157.000000 0.000000 0.000000 0.000000 0.000000 0.000000
1 0 1 1 0.999884 131.000000 157.000000 0.000000 0.000000 0.000000 0.000000 0.000000
1 0 1 1 0.999884 132.000000 157.000000 0.000000 0.000000 0.000000 0.000000 0.000000
1 0 1 1 0.999884 133.000000 157.000000 0.000000 0.000000 0.000000 0.000000 0.000000
1 0 1 1 0.999884 134.000000 157.000000 0.000000 0.000000 0.000000 0.000000 0.000000
1 0 1 1 0.999884 135.000000 157.000000 0.000000 0.000000 0.000000 0.000000 0.000000
1 0 1 1 0.999884 136.000000 157.000000 0.000000 0.000000 0.000000 0.000000 0.000000
1 0 1 1 0.999884 137.000000 157.000000 0.000000 0.000000 0.000000 0.000000 0.000000
1 0 1 1 0.999884 138.000000 157.000000 0.000000 0.000000 0.000000 0.000000 0.000000
1 0 1 1 0.999884 139.000000 157.000000 0.000000 0.000000 0.000000 0.000000 0.000000
1 0 1 1 0.999884 140.000000 157.000000 0.000000 0.000000 0.000000 0.000000 0.000000
1 0 1 1 0.999884 141.000000 157.000000 0.000000 0.000000 0.000000 0.000000 0.000000
1 0 1 1 0.999884 142.000000 157.000000 0.000000 0.000000 0.000000 0.000000 0.000000
1 0 1 1 0.999884 143.000000 157.000000 0.000000 0.000000 0.000000 0.000000 0.000000
1 0 1 1 0.999884 144.000000 157.000000 0.000000 0.000000 0.000000 0.000000 0.000000
1 0 1 1 0.999884 145.000000 157.000000 0.000000 0.000000 0.000000 0.000000 0.000000
1 0 1 1 0.999884 59.000000 158.000000 0.000000 0.000000 0.000000 0.000000 0.000000
1 0 1 1 0.999884 60.000000 158.000000 0.000000 0.000000 0.000000 0.000000 0.000000
1 0 1 1 0.999884 78.000000 158.000000 0.000000 0.000000 0.000000 0.000000 0.000000
1 0 1 1 0.999884 114.000000 158.000000 0.000000 0.000000 0.000000 0.000000 0.000000
1 0 1 1 0.999884 115.000000 158.000000 0.000000 0.000000 0.000000 0.000000 0.000000
1 0 1 1 0.999884 116.000000 158.000000 0.000000 0.000000 0.000000 0.000000 0.000000
1 0 1 1 0.999884 117.000000 158.000000 0.000000 0.000000 0.000000 0.000000 0.000000
1 0 1 1 0.999884 118.000000 158.000000 0.000000 0.000000 0.000000 0.000000 0.000000
1 0 1 1 0.999884 119.000000 158.000000 0.000000 0.000000 0.000000 0.000000 0.000000
1 0 1 1 0.999884 120.000000 158.000000 0.000000 0.000000 0.000000 0.000000 0.000000
1 0 1 1 0.999884 121.000000 158.000000 0.000000 0.000000 0.000000 0.000000 0.000000
1 0 1 1 0.999884 122.000000 158.000000 0.000000 0.000000 0.000000 0.000000 0.000000
1 0 1 1 0.999884 123.000000 158.000000 0.000000 0.000000 0.000000 0.000000 0.000000
1 0 1 1 0.999884 126.000000 158.000000 0.000000 0.000000 0.000000 0.000000 0.000000
1 0 1 1 0.999884 127.000000 158.000000 0.000000 0.000000 0.000000 0.000000 0.000000
1 0 1 1 0.999884 128.000000 158.000000 0.000000 0.000000 0.000000 0.000000 0.000000
1 0 1 1 0.999884 129.000000 158.000000 0.000000 0.000000 0.000000 0.000000 0.000000
1 0 1 1 0.999884 130.000000 158.000000 0.000000 0.000000 0.000000 0.000000 0.000000
1 0 1 1 0.999884 131.000000 158.000000 0.000000 0.000000 0.000000 0.000000 0.000000
1 0 1 1 0.999884 132.000000 158.000000 0.000000 0.000000 0.000000 0.000000 0.000000
1 0 1 1 0.999884 133.000000 158.000000 0.000000 0.000000 0.000000 0.000000 0.000000
1 0 1 1 0.999884 134.000000 158.000000 0.000000 0.000000 0.000000 0.000000 0.000000
1 0 1 1 0.999884 135.000000 158.000000 0.000000 0.000000 0.000000 0.000000 0.000000
1 0 1 1 0.999884 136.000000 158.000000 0.000000 0.000000 0.000000 0.000000 0.000000
1 0 1 1 0.999884 137.000000 158.000000 0.000000 0.000000 0.000000 0.000000 0.000000
1 0 1 1 0.999884 138.000000 158.000000 0.000000 0.000000 0.000000 0.000000 0.000000
1 0 1 1 0.999884 139.000000 158.000000 0.000000 0.000000 0.000000 0.000000 0.000000
1 0 1 1 0.999884 140.000000 158.000000 0.000000 0.000000 0.000000 0.000000 0.000000
1 0 1 1 0.999884 141.000000 158.000000 0.000000 0.000000 0.000000 0.000000 0.000000
1 0 1 1 0.999884 142.000000 158.000000 0.000000 0.000000 0.000000 0.000000 0.000000
1 0 1 1 0.999884 143.000000 158.000000 0.000000 0.000000 0.000000 0.000000 0.000000
1 0 1 1 0.999884 77.000000 159.000000 0.000000 0.000000 0.000000 0.000000 0.000000
1 0 1 1 0.999884 78.000000 159.000000 0.000000 0.000000 0.000000 0.000000 0.000000
1 0 1 1 0.999884 114.000000 159.000000 0.000000 0.000000 0.000000 0.000000 0.000000
1 0 1 1 0.999884 115.000000 159.000000 0.000000 0.000000 0.000000 0.000000 0.000000
1 0 1 1 0.999884 116.000000 159.000000 0.000000 0.000000 0.000000 0.000000 0.000000
1 0 1 1 0.999884 117.000000 159.000000 0.000000 0.000000 0.000000 0.000000 0.000000
1 0 1 1 0.999884 118.000000 159.000000 0.000000 0.000000 0.000000 0.000000 0.000000
1 0 1 1 0.999884 119.000000 159.000000 0.000000 0.000000 0.000000 0.000000 0.000000
1 0 1 1 0.999884 120.000000 159.000000 0.000000 0.000000 0.000000 0.000000 0.000000
1 0 1 1 0.999884 129.000000 159.000000 0.000000 0.000000 0.000000 0.000000 0.000000
1 0 1 1 0.999884 130.000000 159.000000 0.000000 0.000000 0.000000 0.000000 0.000000
1 0 1 1 0.999884 131.000000 159.000000 0.000000 0.000000 0.000000 0.000000 0.000000
1 0 1 1 0.999884 132.000000 159.000000 0.000000 0.000000 0.000000 0.000000 0.000000
1 0 1 1 0.999884 133.000000 159.000000 0.000000 0.000000 0.000000 0.000000 0.000000
1 0 1 1 0.999884 134.000000 159.000000 0.000000 0.000000 0.000000 0.000000 0.000000
1 0 1 1 0.999884 135.000000 159.000000 0.000000 0.000000 0.000000 0.000000 0.000000
1 0 1 1 0.999884 136.000000 159.000000 0.000000 0.000000 0.000000 0.000000 0.000000
1 0 1 1 0.999884 137.000000 159.000000 0.000000 0.000000 0.000000 0.000000 0.000000
1 0 1 1 0.999884 138.000000 159.000000 0.000000 0.000000 0.000000 0.000000 0.000000
1 0 1 1 0.999884 114.000000 160.000000 0.000000 0.000000 0.000000 0.000000 0.000000
1 0 1 1 0.999884 115.000000 160.000000 0.000000 0.000000 0.000000 0.000000 0.000000
1 0 1 1 0.999884 116.000000 160.000000 0.000000 0.000000 0.000000 0.000000 0.000000
1 0 1 1 0.999884 117.000000 160.000000 0.000000 0.000000 0.000000 0.000000 0.000000
1 0 1 1 0.999884 130.000000 160.000000 0.000000 0.000000 0.000000 0.000000 0.000000
1 0 1 1 0.999884 131.000000 160.000000 0.000000 0.000000 0.000000 0.000000 0.000000
1 0 1 1 0.999884 132.000000 160.000000 0.000000 0.000000 0.000000 0.000000 0.000000
1 0 1 1 0.999884 133.000000 160.000000 0.000000 0.000000 0.000000 0.000000 0.000000
1 0 1 1 0.999884 134.000000 160.000000 0.000000 0.000000 0.000000 0.000000 0.000000
1 0 1 1 0.999884 135.000000 160.000000 0.000000 0.000000 0.000000 0.000000 0.000000
1 0 1 1 0.999884 136.000000 160.000000 0.000000 0.000000 0.000000 0.000000 0.000000
