 Coupled Input File name = coupling_shiraho_reef_20231001.in

 Model Coupling: 


       Ocean Model MPI nodes: 000 - 027

       Waves Model MPI nodes: 028 - 030

       WAVgrid 01 dt= 600.0 -to- OCNgrid 01 dt=   5.0, CplInt:   600.0 Steps: 001

       OCNgrid 01 dt=   5.0 -to- WAVgrid 01 dt= 600.0, CplInt:   600.0 Steps: 120
--------------------------------------------------------------------------------
 Model Input Parameters:  ROMS/TOMS version 3.7  
                          Wednesday - July 16, 2025 -  1:40:34 PM
 ----------------------------------------------------------
SWAN grid   1 is preparing computation

----------------------

 Shiraho Reef Case

 Operating system : CYGWIN
 CPU/hardware     : x86_64
 Compiler system  : gfortran
 Compiler command : /usr/bin/mpif90
 Compiler flags   : -frepack-arrays -w -fallow-argument-mismatch -mcmodel=large -O3 -I/usr/local/include -ffree-form -ffree-line-length-none

 Input Script  : 

 SVN Root URL  : https:://myroms.org/svn/src
 SVN Revision  : Unversioned directory

 Local Root    : /home/nakamulab1/yuta/COAWST/COAWST_Eco
 Header Dir    : /home/nakamulab1/yuta/COAWST/Projects/Shiraho_reef2_eco
 Header file   : shiraho_reef.h
 Analytical Dir: /home/nakamulab1/yuta/COAWST/Projects/Shiraho_reef2_eco

 Resolution, Grid 01: 0062x0190x008,  Parallel Nodes:  28,  Tiling: 004x007


 Physical Parameters, Grid: 01
 =============================

     328320  ntimes            Number of timesteps for 3-D equations.
      5.000  dt                Timestep size (s) for 3-D equations.
         20  ndtfast           Number of timesteps for 2-D equations between
                                 each 3D timestep.
          1  ERstr             Starting ensemble/perturbation run number.
          1  ERend             Ending ensemble/perturbation run number.
          0  nrrec             Number of restart records to read from disk.
          T  LcycleRST         Switch to recycle time-records in restart file.
      17280  nRST              Number of timesteps between the writing of data
                                 into restart fields.
         12  ninfo             Number of timesteps between print of information
                                 to standard output.
          T  ldefout           Switch to create a new output NetCDF file(s).
        360  nHIS              Number of timesteps between the writing fields
                                 into history file.
        360  nQCK              Number of timesteps between the writing fields
                                 into quicksave file.
          1  ntsDIA            Starting timestep for the accumulation of output
                                 time-averaged diagnostics data.
        360  nDIA              Number of timesteps between the writing of
                                 time-averaged data into diagnostics file.
 5.0000E-01  nl_tnu2(01)       NLM Horizontal, harmonic mixing coefficient
                                 (m2/s) for tracer 01: temp
 5.0000E-01  nl_tnu2(02)       NLM Horizontal, harmonic mixing coefficient
                                 (m2/s) for tracer 02: salt
 1.0000E-01  nl_visc2          NLM Horizontal, harmonic mixing coefficient
                                 (m2/s) for momentum.
          F  LuvSponge         Turning OFF sponge on horizontal momentum.
          F  LtracerSponge(01) Turning OFF sponge on tracer 01: temp
          F  LtracerSponge(02) Turning OFF sponge on tracer 02: salt
 5.0000E-06  Akt_bak(01)       Background vertical mixing coefficient (m2/s)
                                 for tracer 01: temp
 5.0000E-06  Akt_bak(02)       Background vertical mixing coefficient (m2/s)
                                 for tracer 02: salt
 1.0000E-03  Akt_limit(01)     Vertical diffusion upper threshold (m2/s)
                                 for tracer 01: temp
 1.0000E-03  Akt_limit(02)     Vertical diffusion upper threshold (m2/s)
                                 for tracer 02: salt
 5.0000E-05  Akv_bak           Background vertical mixing coefficient (m2/s)
                                 for momentum.
 1.0000E-03  Akv_limit         Vertical viscosity upper threshold (m2/s)
                                 for momentum.
 5.0000E-06  Akk_bak           Background vertical mixing coefficient (m2/s)
                                 for turbulent energy.
 5.0000E-06  Akp_bak           Background vertical mixing coefficient (m2/s)
                                 for turbulent generic statistical field.
      3.000  gls_p             GLS stability exponent.
      1.500  gls_m             GLS turbulent kinetic energy exponent.
     -1.000  gls_n             GLS turbulent length scale exponent.
 7.6000E-06  gls_Kmin          GLS minimum value of turbulent kinetic energy.
 1.0000E-12  gls_Pmin          GLS minimum value of dissipation.
 5.4770E-01  gls_cmu0          GLS stability coefficient.
 1.4400E+00  gls_c1            GLS shear production coefficient.
 1.9200E+00  gls_c2            GLS dissipation coefficient.
-4.0000E-01  gls_c3m           GLS stable buoyancy production coefficient.
 1.0000E+00  gls_c3p           GLS unstable buoyancy production coefficient.
 1.0000E+00  gls_sigk          GLS constant Schmidt number for TKE.
 1.3000E+00  gls_sigp          GLS constant Schmidt number for PSI.
   1400.000  charnok_alpha     Charnok factor for Zos calculation.
      0.500  zos_hsig_alpha    Factor for Zos calculation using Hsig(Awave).
      0.020  sz_alpha          Factor for Wave dissipation surface tke flux .
    100.000  crgban_cw         Factor for Craig/Banner surface tke flux.
      0.500  wec_alpha         WEC factor for roller/breaking energy distribution.
 3.0000E-04  rdrg              Linear bottom drag coefficient (m/s).
 2.5000E-02  rdrg2             Quadratic bottom drag coefficient.
 3.0000E-02  Zob               Bottom roughness (m).
 5.0000E-01  Zos               Surface roughness (m).
 1.0000E+01  blk_ZQ            Height (m) of surface air humidity measurement.
 1.0000E+01  blk_ZT            Height (m) of surface air temperature measurement.
 1.0000E+01  blk_ZW            Height (m) of surface winds measurement.
 1.0000E-01  Dcrit             Minimum depth for wetting and drying (m).
          2  Vtransform        S-coordinate transformation equation.
          3  Vstretching       S-coordinate stretching function.
 1.0000E+00  theta_s           S-coordinate surface control parameter.
 1.0000E+00  theta_b           S-coordinate bottom  control parameter.
     30.000  Tcline            S-coordinate surface/bottom layer width (m) used
                                 in vertical coordinate stretching.
   1025.000  rho0              Mean density (kg/m3) for Boussinesq approximation.
      0.000  dstart            Time-stamp assigned to model initialization (days).
20000101.00  time_ref          Reference time for units attribute (yyyymmdd.dd)
 1.0000E+00  Tnudg(01)         Nudging/relaxation time scale (days)
                                 for tracer 01: temp
 1.0000E+00  Tnudg(02)         Nudging/relaxation time scale (days)
                                 for tracer 02: salt
 9.0000E+00  Znudg             Nudging/relaxation time scale (days)
                                 for free-surface.
 6.0000E+00  M2nudg            Nudging/relaxation time scale (days)
                                 for 2D momentum.
 1.0000E+00  M3nudg            Nudging/relaxation time scale (days)
                                 for 3D momentum.
 5.0000E+02  obcfac            Factor between passive and active
                                 open boundary conditions.
          F  VolCons(1)        NLM western  edge boundary volume conservation.
          F  VolCons(2)        NLM southern edge boundary volume conservation.
          F  VolCons(3)        NLM eastern  edge boundary volume conservation.
          F  VolCons(4)        NLM northern edge boundary volume conservation.
     25.000  T0                Background potential temperature (C) constant.
     34.700  S0                Background salinity (PSU) constant.
      1.000  gamma2            Slipperiness variable: free-slip (1.0) or 
                                                      no-slip (-1.0).
          F  LuvSrc            Turning OFF momentum point Sources/Sinks.
          T  LwSrc             Turning ON  volume influx point Sources/Sinks.
          T  LtracerSrc(01)    Turning ON  point Sources/Sinks on tracer 01: temp
          T  LtracerSrc(02)    Turning ON  point Sources/Sinks on tracer 02: salt
          F  LsshCLM           Turning OFF processing of SSH climatology.
          F  Lm2CLM            Turning OFF processing of 2D momentum climatology.
          F  Lm3CLM            Turning OFF processing of 3D momentum climatology.
          F  LtracerCLM(01)    Turning OFF processing of climatology tracer 01: temp
          F  LtracerCLM(02)    Turning OFF processing of climatology tracer 02: salt
          F  LnudgeM2CLM       Turning OFF nudging of 2D momentum climatology.
          F  LnudgeM3CLM       Turning OFF nudging of 3D momentum climatology.
          F  LnudgeTCLM(01)    Turning OFF nudging of climatology tracer 01: temp
          F  LnudgeTCLM(02)    Turning OFF nudging of climatology tracer 02: salt

          T  Hout(idFsur)      Write out free-surface.
          T  Hout(idUbar)      Write out 2D U-momentum component.
          T  Hout(idVbar)      Write out 2D V-momentum component.
          T  Hout(idUvel)      Write out 3D U-momentum component.
          T  Hout(idVvel)      Write out 3D V-momentum component.
          T  Hout(idWvel)      Write out W-momentum component.
          T  Hout(idOvel)      Write out omega vertical velocity.
          T  Hout(idTvar)      Write out tracer 01: temp
          T  Hout(idTvar)      Write out tracer 02: salt
          T  Hout(idUbms)      Write out bottom U-momentum stress.
          T  Hout(idVbms)      Write out bottom V-momentum stress.
          T  Hout(idUbrs)      Write out bottom U-current stress.
          T  Hout(idVbrs)      Write out bottom V-current stress.
          T  Hout(idUbws)      Write out wind-induced, bottom U-wave stress.
          T  Hout(idVbws)      Write out wind-induced, bottom V-wave stress.
          T  Hout(idUbcs)      Write out max wind + current, bottom U-wave stress.
          T  Hout(idVbcs)      Write out max wind + current, bottom V-wave stress.
          T  Hout(idUVwc)      Write out max wind + current, bottom UV-wave stress.
          T  Hout(idUbot)      Write out bed wave orbital U-velocity.
          T  Hout(idVbot)      Write out bed wave orbital V-velocity.
          T  Hout(idUbur)      Write out bottom U-momentum above bed.
          T  Hout(idVbvr)      Write out bottom V-momentum above bed.
          T  Hout(idWamp)      Write out wave height.
          T  Hout(idWlen)      Write out wavelength.
          T  Hout(idWdir)      Write out wave direction.
          T  Hout(idWptp)      Write out wave surface period.
          T  Hout(idWpbt)      Write out wave bottom period.
          T  Hout(idWorb)      Write out wave bottom orbital velocity.
          T  Hout(idSrad)      Write out shortwave radiation flux.
          T  Hout(idLrad)      Write out longwave radiation flux.
          T  Hout(idLhea)      Write out latent heat flux.
          T  Hout(idShea)      Write out sensible heat flux.
          T  Hout(idEmPf)      Write out E-P flux.
          T  Hout(idVvis)      Write out vertical viscosity: AKv.
          T  Hout(idTdif)      Write out vertical diffusion: AKt(itemp).
          T  Hout(idSdif)      Write out vertical diffusion: AKt(isalt).
          T  Hout(idMtke)      Write out turbulent kinetic energy.

 Output/Input Files:

             Output Restart File:  Z:/COAWST_OUTPUT/Yaeyama/Shiraho_reef2_eco/SR_veg_eco2_sg_rst_20231001_test_12.nc
             Output History File:  Z:/COAWST_OUTPUT/Yaeyama/Shiraho_reef2_eco/SR_veg_eco2_sg_his_20231001_test_12.nc
         Output Diagnostics File:  Z:/COAWST_OUTPUT/Yaeyama/Shiraho_reef2_eco/SR_veg_eco2_sg_dia_20231001_test_12.nc
        Physical parameters File:  
                 Input Grid File:  Z:/COAWST_DATA/Yaeyama/Shiraho_reef2/Grid/shiraho_roms_grd_JCOPET_v18.1.nc
    Input Nonlinear Initial File:  Z:/COAWST_DATA/Yaeyama/Shiraho_reef2/Ini/Shiraho_reef_ini_ROMS_Nz8_20231001.00.nc
           Input Forcing File 01:  Z:/COAWST_DATA/Yaeyama/Ishigaki_Air/Ishigaki_frc_JMAobs_2023_Pair.nc
           Input Forcing File 02:  Z:/COAWST_DATA/Yaeyama/Ishigaki_Air/Ishigaki_frc_JMAobs_2023_wind.nc
           Input Forcing File 03:  Z:/COAWST_DATA/Yaeyama/Ishigaki_Air/Ishigaki_frc_JMAobs_2023_Tair.nc
           Input Forcing File 04:  Z:/COAWST_DATA/Yaeyama/Ishigaki_Air/Ishigaki_frc_JMAobs_2023_Qair.nc
           Input Forcing File 05:  Z:/COAWST_DATA/Yaeyama/Ishigaki_Air/Ishigaki_frc_JMAobs_2023_rain.nc
           Input Forcing File 06:  Z:/COAWST_DATA/Yaeyama/Ishigaki_Air/Ishigaki_frc_JMAobs_2023_swrad.nc
           Input Forcing File 07:  Z:/COAWST_DATA/Yaeyama/Ishigaki_Air/Ishigaki_frc_JMAobs_2023_lwrad_down.nc
         Input Boundary File 01:  Z:/COAWST_DATA/Yaeyama/Shiraho_reef2/Bry/Shiraho_reef_bry_ROMS_Nz8_20230930.00.nc
         Biology Parameters File:  bio_reef_ecosys.in

 Tile partition information for Grid 01:  0062x0190x0008  tiling: 004x007

     tile     Istr     Iend     Jstr     Jend     Npts

 Number of tracers:           78
        0        1       15        1       25     3000
        1       16       31        1       25     3200
        2       32       47        1       25     3200
        3       48       62        1       25     3000
        4        1       15       26       53     3360
        5       16       31       26       53     3584
        6       32       47       26       53     3584
        7       48       62       26       53     3360
        8        1       15       54       81     3360
        9       16       31       54       81     3584
       10       32       47       54       81     3584
       11       48       62       54       81     3360
       12        1       15       82      109     3360
       13       16       31       82      109     3584
       14       32       47       82      109     3584
       15       48       62       82      109     3360
       16        1       15      110      137     3360
       17       16       31      110      137     3584
       18       32       47      110      137     3584
       19       48       62      110      137     3360
       20        1       15      138      165     3360
       21       16       31      138      165     3584
       22       32       47      138      165     3584
       23       48       62      138      165     3360
       24        1       15      166      190     3000
       25       16       31      166      190     3200
       26       32       47      166      190     3200
       27       48       62      166      190     3000

 Tile minimum and maximum fractional coordinates for Grid 01:
   (interior points only)

     tile     Xmin     Xmax     Ymin     Ymax     grid

        0     0.50    15.50     0.50    25.50  RHO-points
        1    15.50    31.50     0.50    25.50  RHO-points
        2    31.50    47.50     0.50    25.50  RHO-points
        3    47.50    62.50     0.50    25.50  RHO-points
        4     0.50    15.50    25.50    53.50  RHO-points
        5    15.50    31.50    25.50    53.50  RHO-points
        6    31.50    47.50    25.50    53.50  RHO-points
        7    47.50    62.50    25.50    53.50  RHO-points
        8     0.50    15.50    53.50    81.50  RHO-points
        9    15.50    31.50    53.50    81.50  RHO-points
       10    31.50    47.50    53.50    81.50  RHO-points
       11    47.50    62.50    53.50    81.50  RHO-points
       12     0.50    15.50    81.50   109.50  RHO-points
       13    15.50    31.50    81.50   109.50  RHO-points
       14    31.50    47.50    81.50   109.50  RHO-points
       15    47.50    62.50    81.50   109.50  RHO-points
       16     0.50    15.50   109.50   137.50  RHO-points
       17    15.50    31.50   109.50   137.50  RHO-points
       18    31.50    47.50   109.50   137.50  RHO-points
       19    47.50    62.50   109.50   137.50  RHO-points
       20     0.50    15.50   137.50   165.50  RHO-points
       21    15.50    31.50   137.50   165.50  RHO-points
       22    31.50    47.50   137.50   165.50  RHO-points
       23    47.50    62.50   137.50   165.50  RHO-points
       24     0.50    15.50   165.50   190.50  RHO-points
       25    15.50    31.50   165.50   190.50  RHO-points
       26    31.50    47.50   165.50   190.50  RHO-points
       27    47.50    62.50   165.50   190.50  RHO-points

        0     1.00    15.50     0.50    25.50    U-points
        1    15.50    31.50     0.50    25.50    U-points
        2    31.50    47.50     0.50    25.50    U-points
        3    47.50    62.00     0.50    25.50    U-points
        4     1.00    15.50    25.50    53.50    U-points
        5    15.50    31.50    25.50    53.50    U-points
        6    31.50    47.50    25.50    53.50    U-points
        7    47.50    62.00    25.50    53.50    U-points
        8     1.00    15.50    53.50    81.50    U-points
        9    15.50    31.50    53.50    81.50    U-points
       10    31.50    47.50    53.50    81.50    U-points
       11    47.50    62.00    53.50    81.50    U-points
       12     1.00    15.50    81.50   109.50    U-points
       13    15.50    31.50    81.50   109.50    U-points
       14    31.50    47.50    81.50   109.50    U-points
       15    47.50    62.00    81.50   109.50    U-points
       16     1.00    15.50   109.50   137.50    U-points
       17    15.50    31.50   109.50   137.50    U-points
       18    31.50    47.50   109.50   137.50    U-points
       19    47.50    62.00   109.50   137.50    U-points
       20     1.00    15.50   137.50   165.50    U-points
       21    15.50    31.50   137.50   165.50    U-points
       22    31.50    47.50   137.50   165.50    U-points
       23    47.50    62.00   137.50   165.50    U-points
       24     1.00    15.50   165.50   190.50    U-points
       25    15.50    31.50   165.50   190.50    U-points
       26    31.50    47.50   165.50   190.50    U-points
       27    47.50    62.00   165.50   190.50    U-points

        0     0.50    15.50     1.00    25.50    V-points
        1    15.50    31.50     1.00    25.50    V-points
        2    31.50    47.50     1.00    25.50    V-points
        3    47.50    62.50     1.00    25.50    V-points
        4     0.50    15.50    25.50    53.50    V-points
        5    15.50    31.50    25.50    53.50    V-points
        6     Node #  9 (pid=       0) is active.
 Node # 10 (pid=       0) is active.
 Node # 11 (pid=       0) is active.
 Node # 12 (pid=       0) is active.
 Node # 13 (pid=       0) is active.
 Node # 14 (pid=       0) is active.
 Node # 15 (pid=       0) is active.
 Node # 16 (pid=       0) is active.
 Node # 17 (pid=       0) is active.
 Node # 18 (pid=       0) is active.
 Node # 19 (pid=       0) is active.
 Node # 20 (pid=       0) is active.
 Node # 21 (pid=       0) is active.
 Node # 22 (pid=       0) is active.
 Node # 23 (pid=       0) is active.
 Node # 24 (pid=       0) is active.
 Node # 25 (pid=       0) is active.
 Node # 26 (pid=       0) is active.
 Node # 27 (pid=       0) is active.
31.50    47.50    25.50    53.50    V-points
        7    47.50    62.50    25.50    53.50    V-points
        8     0.50    15.50    53.50    81.50    V-points
        9    15.50    31.50    53.50    81.50    V-points
       10    31.50    47.50    53.50  Node #  1 (pid=       0) is active.
 Node #  2 (pid=       0) is active.
 Node #  3 (pid=       0) is active.
 Node #  4 (pid=       0) is active.
 Node #  5 (pid=       0) is active.
 Node #  6 (pid=       0) is active.
 Node #  7 (pid=       0) is active.
 Node #  8 (pid=       0) is active.
   81.50    V-points
       11    47.50    62.50    53.50    81.50    V-points
       12     0.50    15.50    81.50   109.50    V-points
       13    15.50    31.50    81.50   109.50    V-points
       14    31.50    47.50    81.50   109.50    V-points
       15    47.50    62.50    81.50   109.50    V-points
       16     0.50    15.50   109.50   137.50    V-points
       17    15.50    31.50   109.50   137.50    V-points
       18    31.50    47.50   109.50   137.50    V-points
       19    47.50    62.50   109.50   137.50    V-points
       20     0.50    15.50   137.50   165.50    V-points
       21    15.50    31.50   137.50   165.50    V-points
       22    31.50    47.50   137.50   165.50    V-points
       23    47.50    62.50   137.50   165.50    V-points
       24     0.50    15.50   165.50   190.00    V-points
       25    15.50    31.50   165.50   190.00    V-points
       26    31.50    47.50   165.50   190.00    V-points
       27    47.50    62.50   165.50   190.00    V-points

 Maximum halo size in XI and ETA directions:

               HaloSizeI(1) =      56
               HaloSizeJ(1) =      80
                TileSide(1) =      34
                TileSize(1) =     748



 Reef Ecosys Model Parameters, Grid: 01
 =================================

         20  CrlIter         Number of iterations for nonlinear convergence.
         10  SedIter         Number of iterations for nonlinear convergence.
 1.8200E+00  PARfrac         Fraction of shortwave radiation that is
                               photosynthetically active (nondimensional).
 4.0000E+02  pCO2air         CO2 partial pressure in air (ppm by volume).
 2.0000E+02  DO_0            Dissolved oxygen (umol/L).
 2.2320E+03  TA_0            Total alkalinity  (umol/kg).
 1.9150E+03  DIC_0    yt_debug: mod_reef_ecosys.F allocate_reef_ecosys() finished seagrass aloc
 yt_debug: mod_reef_ecosys.F allocate_reef_ecosys() finished seagrass aloc
 yt_debug: mod_reef_ecosys.F allocate_reef_ecosys() finished seagrass aloc
 yt_debug: mod_reef_ecosys.F allocate_reef_ecosys() finished seagrass aloc
 yt_debug: mod_reef_ecosys.F allocate_reef_ecosys() finished seagrass aloc
 yt_debug: mod_reef_ecosys.F allocate_reef_ecosys() finished seagrass aloc
        Total dissolved inorganic carbon (umol/kg).
 2.0000E-01  NO3_0           NO3 (umol/L).
 2.6000E-01  NH4_0           NH4 (umol/L).
 4.0000E-02  PO4_0           PO4 (umol/L).
 1.0000E-01  DOC_0: 01       Dissolved organic carbon (umolC/L).
 5.0000E+0 yt_debug: mod_reef_ecosys.F allocate_reef_ecosys() finished seagrass aloc
 yt_debug: mod_reef_ecosys.F allocate_reef_ecosys() finished seagrass aloc
 yt_debug: mod_reef_ecosys.F allocate_reef_ecosys() finished seagrass aloc
 yt_debug: mod_reef_ecosys.F allocate_reef_ecosys() finished seagrass aloc
 yt_debug: mod_reef_ecosys.F allocate_reef_ecosys() finished seagrass aloc
 yt_debug: mod_reef_ecosys.F allocate_reef_ecosys() finished seagrass aloc
 yt_debug: mod_reef_ecosys.F allocate_reef_ecosys() finished seagrass aloc
 yt_debug: mod_reef_ecosys.F allocate_reef_ecosys() finished seagrass aloc
 yt_debug: mod_reef_ecosys.F allocate_reef_ecosys() finished seagrass aloc
 yt_debug: mod_reef_ecosys.F allocate_reef_ecosys() finished seagrass aloc
 yt_debug: mod_reef_ecosys.F allocate_reef_ecosys() finished seagrass aloc
 yt_debug: mod_reef_ecosys.F allocate_reef_ecosys() finished seagrass aloc
 yt_debug: mod_reef_ecosys.F allocate_reef_ecosys() finished sediment aloc
 yt_debug: mod_reef_ecosys.F allocate_reef_ecosys() finished seagrass aloc
 yt_debug: mod_reef_ecosys.F allocate_reef_ecosys() finished seagrass aloc
 yt_debug: mod_reef_ecosys.F allocate_reef_ecosys() finished seagrass aloc
 yt_debug: mod_reef_ecosys.F allocate_reef_ecosys() finished seagrass aloc
 yt_debug: mod_reef_ecosys.F allocate_reef_ecosys() finished sediment aloc
 yt_debug: mod_reef_ecosys.F allocate_reef_ecosys() finished seagrass aloc
 yt_debug: mod_reef_ecosys.F allocate_reef_ecosys() finished sediment aloc
 yt_debug: mod_reef_ecosys.F allocate_reef_ecosys() finished sediment aloc
1  DOC_0: 02       Dissolved organic carbon (umolC/L).
 0.0000E+00  POC_0: 01       Particulate organic carbon (umolC/L).
 0.0000E+00  POC_0: 02       Particulate organic carbon (umolC/L).
 0.0000E+00  POC_0: 03       Particulate organic carbon (umolC/L).
 yt_debug: mod_reef_ecosys.F allocate_reef_ecosys() finished sediment aloc
 yt_debug: mod_reef_ecosys.F allocate_reef_ecosys() finished sediment aloc
 yt_debug: mod_reef_ecosys.F allocate_reef_ecosys() finished sediment aloc
 yt_debug: mod_reef_ecosys.F allocate_reef_ecosys() finished sediment aloc
 yt_debug: mod_reef_ecosys.F allocate_reef_ecosys() finished seagrass aloc
 yt_debug: mod_reef_ecosys.F allocate_reef_ecosys() finished sediment aloc
 yt_debug: mod_reef_ecosys.F allocate_reef_ecosys() finished sediment aloc
 yt_debug: mod_reef_ecosys.F allocate_reef_ecosys() finished seagrass aloc
 yt_debug: mod_reef_ecosys.F allocate_reef_ecosys() finished sediment aloc
 yt_debug: mod_reef_ecosys.F allocate_reef_ecosys() finished sediment aloc
 yt_debug: mod_reef_ecosys.F allocate_reef_ecosys() finished sediment aloc
 yt_debug: mod_reef_ecosys.F allocate_reef_ecosys() finished sediment aloc
 yt_debug: mod_reef_ecosys.F allocate_reef_ecosys() finished sediment aloc
 yt_debug: mod_reef_ecosys.F allocate_reef_ecosys() finished sediment aloc
 yt_debug: mod_reef_ecosys.F allocate_reef_ecosys() finished sediment aloc
 yt_debug: mod_reef_ecosys.F allocate_reef_ecosys() finished sediment aloc
 yt_debug: mod_reef_ecosys.F allocate_reef_ecosys() finished sediment aloc
 yt_debug: mod_reef_ecosys.F allocate_reef_ecosys() finished sediment aloc
 yt_debug: mod_reef_ecosys.F allocate_reef_ecosys() finished sediment aloc
 yt_debug: mod_reef_ecosys.F allocate_reef_ecosys() finished sediment aloc
 yt_debug: mod_reef_ecosys.F allocate_reef_ecosys() finished sediment aloc
 yt_debug: mod_reef_ecosys.F allocate_reef_ecosys() finished sediment aloc
 yt_debug: mod_reef_ecosys.F allocate_reef_ecosys() finished seagrass aloc
 yt_debug: mod_reef_ecosys.F allocate_reef_ecosys() finished sediment aloc
 yt_debug: mod_reef_ecosys.F allocate_reef_ecosys() finished sediment aloc
 yt_debug: mod_reef_ecosys.F allocate_reef_ecosys() finished seagrass aloc
 yt_debug: mod_reef_ecosys.F allocate_reef_ecosys() finished sediment aloc
 1.5000E-02  DON_0: 01       DON (umolN/L).
 5.0000E+00  DON_0: 02       DON (umolN/L).
 0.0000E+00  PON_0: 01       PON (umolN/L).
 0.0000E+00  PON_0: 02       PON (umolN/L).
 0.0000E+00  PON_0: 03       PON (umolN/L).
 1.0000E-03  DOP_0: 01       DOP (umolP/L).
 6.0000E-01  DOP_0: 02       DOP (umolP/L).
 0.0000E+00  POP_0: 01       POP (umolP/L).
 0.0000E+00  POP_0: 02       POP (umolP/L).
 0.0000E+00  POP_0: 03       POP (umolP/L).
 3.0000E-01  PhyC_0: 01      Phytoplankton (umolC/L).
 1.0000E-01  PhyC_0: 02      Phytoplankton (umolC/L).
 1.0000E-02  PhyC_0: 03      Phytoplankton (umolC/L).
 1.0000E-02  PhyC_0: 04      Phytoplankton (umolC/L).
 5.0000E-02  ZooC_0: 01      Zooplankton (umolC/L).
 0.0000E+00  PIC_0: 01       PIC (umolC/L).
 0.0000E+00  PIC_0: 02       PIC (umolC/L).
 1.0000E+02  MnO2_sed        MnO2 in sediments [nmol/g(DW)].
 1.0000E+03  FeOOH_sed       FeOOH in sediments [nmol/g(DW)].
 1.0000E+03  FeS2_sed        FeS2 in sediments [nmol/g(DW)].
 2.0000E+06  OrgC_sed        OrgC in sediments [nmol/g(DW)].
 8.0000E-01  rCaCO3_sed      Fraction of CaCO3 in sediments [g(CaCO3)/g(DW)].
 0.0000E+00  nl_tnu2(05)     NLM Horizontal, harmonic mixing coefficient
                               (m2/s) for tracer 05: DO
 0.0000E+00  nl_tnu2(06)     NLM Horizontal, harmonic mixing coefficient
                               (m2/s) for tracer 06: TA
 0.0000E+00  nl_tnu2(07)     NLM Horizontal, harmonic mixing coefficient
                               (m2/s) for tracer 07: DIC_01
 0.0000E+00  nl_tnu2(08)     NLM Horizontal, harmonic mixing coefficient
                               (m2/s) for tracer 08: DIC_02
 0.0000E+00  nl_tnu2(09)     NLM Horizontal, harmonic mixing coefficient
                               (m2/s) for tracer 09: NO3_01
 0.0000E+00  nl_tnu2(10)     NLM Horizontal, harmonic mixing coefficient
                               (m2/s) for tracer 10: NO3_02
 0.0000E+00  nl_tnu2(11)     NLM Horizontal, harmonic mixing coefficient
                               (m2/s) for tracer 11: NH4_01
 0.0000E+00  nl_tnu2(12)     NLM Horizontal, harmonic mixing coefficient
                               (m2/s) for tracer 12: NH4_02
 0.0000E+00  nl_tnu2(13)     NLM Horizontal, harmonic mixing coefficient
                               (m2/s) for tracer 13: PO4_01
 0.0000E+00  nl_tnu2(14)     NLM Horizontal, harmonic mixing coefficient
                               (m2/s) for tracer 14: PO4_02
 0.0000E+00  nl_tnu2(15)     NLM Horizontal, harmonic mixing coefficient
                               (m2/s) for tracer 15: DOC01_01
 0.0000E+00  nl_tnu2(16)     NLM Horizontal, harmonic mixing coefficient
                               (m2/s) for tracer 16: DOC01_02
 0.0000E+00  nl_tnu2(17)     NLM Horizontal, harmonic mixing coefficient
                               (m2/s) for tracer 17: DOC02_01
 0.0000E+00  nl_tnu2(18)     NLM Horizontal, harmonic mixing coefficient
                               (m2/s) for tracer 18: DOC02_02
 0.0000E+00  nl_tnu2(19)     NLM Horizontal, harmonic mixing coefficient
                               (m2/s) for tracer 19: DON01_01
 0.0000E+00  nl_tnu2(20)     NLM Horizontal, harmonic mixing coefficient
                               (m2/s) for tracer 20: DON01_02
 0.0000E+00  nl_tnu2(21)     NLM Horizontal, harmonic mixing coefficient
                               (m2/s) for tracer 21: DON02_01
 0.0000E+00  nl_tnu2(22)     NLM Horizontal, harmonic mixing coefficient
                               (m2/s) for tracer 22: DON02_02
 0.0000E+00  nl_tnu2(23)     NLM Horizontal, harmonic mixing coefficient
                               (m2/s) for tracer 23: DOP01_01
 0.0000E+00  nl_tnu2(24)     NLM Horizontal, harmonic mixing coefficient
                               (m2/s) for tracer 24: DOP01_02
 0.0000E+00  nl_tnu2(25)     NLM Horizontal, harmonic mixing coefficient
                               (m2/s) for tracer 25: DOP02_01
 0.0000E+00  nl_tnu2(26)     NLM Horizontal, harmonic mixing coefficient
                               (m2/s) for tracer 26: DOP02_02
 0.0000E+00  nl_tnu2(27)     NLM Horizontal, harmonic mixing coefficient
                               (m2/s) for tracer 27: POC01_01
 0.0000E+00  nl_tnu2(28)     NLM Horizontal, harmonic mixing coefficient
                               (m2/s) for tracer 28: POC01_02
 0.0000E+00  nl_tnu2(29)     NLM Horizontal, harmonic mixing coefficient
                               (m2/s) for tracer 29: POC02_01
 0.0000E+00  nl_tnu2(30)     NLM Horizontal, harmonic mixing coefficient
                               (m2/s) for tracer 30: POC02_02
 0.0000E+00  nl_tnu2(31)     NLM Horizontal, harmonic mixing coefficient
                               (m2/s) for tracer 31: POC03_01
 0.0000E+00  nl_tnu2(32)     NLM Horizontal, harmonic mixing coefficient
                               (m2/s) for tracer 32: POC03_02
 0.0000E+00  nl_tnu2(33)     NLM Horizontal, harmonic mixing coefficient
                               (m2/s) for tracer 33: PON01_01
 0.0000E+00  nl_tnu2(34)     NLM Horizontal, harmonic mixing coefficient
                               (m2/s) for tracer 34: PON01_02
 0.0000E+00  nl_tnu2(35)     NLM Horizontal, harmonic mixing coefficient
                               (m2/s) for tracer 35: PON02_01
 0.0000E+00  nl_tnu2(36)     NLM Horizontal, harmonic mixing coefficient
                               (m2/s) for tracer 36: PON02_02
 0.0000E+00  nl_tnu2(37)     NLM Horizontal, harmonic mixing coefficient
                               (m2/s) for tracer 37: PON03_01
 0.0000E+00  nl_tnu2(38)     NLM Horizontal, harmonic mixing coefficient
                               (m2/s) for tracer 38: PON03_02
 0.0000E+00  nl_tnu2(39)     NLM Horizontal, harmonic mixing coefficient
                               (m2/s) for tracer 39: POP01_01
 0.0000E+00  nl_tnu2(40)     NLM Horizontal, harmonic mixing coefficient
                               (m2/s) for tracer 40: POP01_02
 0.0000E+00  nl_tnu2(41)     NLM Horizontal, harmonic mixing coefficient
                               (m2/s) for tracer 41: POP02_01
 0.0000E+00  nl_tnu2(42)     NLM Horizontal, harmonic mixing coefficient
                               (m2/s) for tracer 42: POP02_02
 0.0000E+00  nl_tnu2(43)     NLM Horizontal, harmonic mixing coefficient
                               (m2/s) for tracer 43: POP03_01
 0.0000E+00  nl_tnu2(44)     NLM Horizontal, harmonic mixing coefficient
                               (m2/s) for tracer 44: POP03_02
 0.0000E+00  nl_tnu2(45)     NLM Horizontal, harmonic mixing coefficient
                               (m2/s) for tracer 45: PhyC01_01
 0.0000E+00  nl_tnu2(46)     NLM Horizontal, harmonic mixing coefficient
                               (m2/s) for tracer 46: PhyC01_02
 0.0000E+00  nl_tnu2(47)     NLM Horizontal, harmonic mixing coefficient
                               (m2/s) for tracer 47: PhyC02_01
 0.0000E+00  nl_tnu2(48)     NLM Horizontal, harmonic mixing coefficient
                               (m2/s) for tracer 48: PhyC02_02
 0.0000E+00  nl_tnu2(49)     NLM Horizontal, harmonic mixing coefficient
                               (m2/s) for tracer 49: PhyC03_01
 0.0000E+00  nl_tnu2(50)     NLM Horizontal, harmonic mixing coefficient
                               (m2/s) for tracer 50: PhyC03_02
 0.0000E+00  nl_tnu2(51)     NLM Horizontal, harmonic mixing coefficient
                               (m2/s) for tracer 51: PhyC04_01
 0.0000E+00  nl_tnu2(52)     NLM Horizontal, harmonic mixing coefficient
                               (m2/s) for tracer 52: PhyC04_02
 0.0000E+00  nl_tnu2(53)     NLM Horizontal, harmonic mixing coefficient
                               (m2/s) for tracer 53: PhyN01_01
 0.0000E+00  nl_tnu2(54)     NLM Horizontal, harmonic mixing coefficient
                               (m2/s) for tracer 54: PhyN01_02
 0.0000E+00  nl_tnu2(55)     NLM Horizontal, harmonic mixing coefficient
                               (m2/s) for tracer 55: PhyN02_01
 0.0000E+00  nl_tnu2(56)     NLM Horizontal, harmonic mixing coefficient
                               (m2/s) for tracer 56: PhyN02_02
 0.0000E+00  nl_tnu2(57)     NLM Horizontal, harmonic mixing coefficient
                               (m2/s) for tracer 57: PhyN03_01
 0.0000E+00  nl_tnu2(58)     NLM Horizontal, harmonic mixing coefficient
                               (m2/s) for tracer 58: PhyN03_02
 0.0000E+00  nl_tnu2(59)     NLM Horizontal, harmonic mixing coefficient
                               (m2/s) for tracer 59: PhyN04_01
 0.0000E+00  nl_tnu2(60)     NLM Horizontal, harmonic mixing coefficient
                               (m2/s) for tracer 60: PhyN04_02
 0.0000E+00  nl_tnu2(61)     NLM Horizontal, harmonic mixing coefficient
                               (m2/s) for tracer 61: PhyP01_01
 0.0000E+00  nl_tnu2(62)     NLM Horizontal, harmonic mixing coefficient
                               (m2/s) for tracer 62: PhyP01_02
 0.0000E+00  nl_tnu2(63)     NLM Horizontal, harmonic mixing coefficient
                               (m2/s) for tracer 63: PhyP02_01
 0.0000E+00  nl_tnu2(64)     NLM Horizontal, harmonic mixing coefficient
                               (m2/s) for tracer 64: PhyP02_02
 0.0000E+00  nl_tnu2(65)     NLM Horizontal, harmonic mixing coefficient
                               (m2/s) for tracer 65: PhyP03_01
 0.0000E+00  nl_tnu2(66)     NLM Horizontal, harmonic mixing coefficient
                               (m2/s) for tracer 66: PhyP03_02
 0.0000E+00  nl_tnu2(67)     NLM Horizontal, harmonic mixing coefficient
                               (m2/s) for tracer 67: PhyP04_01
 0.0000E+00  nl_tnu2(68)     NLM Horizontal, harmonic mixing coefficient
                               (m2/s) for tracer 68: PhyP04_02
 0.0000E+00  nl_tnu2(69)     NLM Horizontal, harmonic mixing coefficient
                               (m2/s) for tracer 69: ZooC01_01
 0.0000E+00  nl_tnu2(70)     NLM Horizontal, harmonic mixing coefficient
                               (m2/s) for tracer 70: ZooC01_02
 0.0000E+00  nl_tnu2(71)     NLM Horizontal, harmonic mixing coefficient
                               (m2/s) for tracer 71: ZooN01_01
 0.0000E+00  nl_tnu2(72)     NLM Horizontal, harmonic mixing coefficient
                               (m2/s) for tracer 72: ZooN01_02
 0.0000E+00  nl_tnu2(73)     NLM Horizontal, harmonic mixing coefficient
                               (m2/s) for tracer 73: ZooP01_01
 0.0000E+00  nl_tnu2(74)     NLM Horizontal, harmonic mixing coefficient
                               (m2/s) for tracer 74: ZooP01_02
 0.0000E+00  nl_tnu2(75)     NLM Horizontal, harmonic mixing coefficient
                               (m2/s) for tracer 75: PIC01_01
 0.0000E+00  nl_tnu2(76)     NLM Horizontal, harmonic mixing coefficient
                               (m2/s) for tracer 76: PIC01_02
 0.0000E+00  nl_tnu2(77)     NLM Horizontal, harmonic mixing coefficient
                               (m2/s) for tracer 77: PIC02_01
 0.0000E+00  nl_tnu2(78)     NLM Horizontal, harmonic mixing coefficient
                               (m2/s) for tracer 78: PIC02_02
 1.0000E-06  Akt_bak(05)     Background vertical mixing coefficient (m2/s)
                               for tracer 05: DO
 1.0000E-06  Akt_bak(06)     Background vertical mixing coefficient (m2/s)
                               for tracer 06: TA
 1.0000E-06  Akt_bak(07)     Background vertical mixing coefficient (m2/s)
                               for tracer 07: DIC_01
 1.0000E-06  Akt_bak(08)     Background vertical mixing coefficient (m2/s)
                               for tracer 08: DIC_02
 1.0000E-06  Akt_bak(09)     Background vertical mixing coefficient (m2/s)
                               for tracer 09: NO3_01
 1.0000E-06  Akt_bak(10)     Background vertical mixing coefficient (m2/s)
                               for tracer 10: NO3_02
 1.0000E-06  Akt_bak(11)     Background vertical mixing coefficient (m2/s)
                               for tracer 11: NH4_01
 1.0000E-06  Akt_bak(12)     Background vertical mixing coefficient (m2/s)
                               for tracer 12: NH4_02
 1.0000E-06  Akt_bak(13)     Background vertical mixing coefficient (m2/s)
                               for tracer 13: PO4_01
 1.0000E-06  Akt_bak(14)     Background vertical mixing coefficient (m2/s)
                               for tracer 14: PO4_02
 1.0000E-06  Akt_bak(15)     Background vertical mixing coefficient (m2/s)
                               for tracer 15: DOC01_01
 1.0000E-06  Akt_bak(16)     Background vertical mixing coefficient (m2/s)
                               for tracer 16: DOC01_02
 1.0000E-06  Akt_bak(17)     Background vertical mixing coefficient (m2/s)
                               for tracer 17: DOC02_01
 1.0000E-06  Akt_bak(18)     Background vertical mixing coefficient (m2/s)
                               for tracer 18: DOC02_02
 1.0000E-06  Akt_bak(19)     Background vertical mixing coefficient (m2/s)
                               for tracer 19: DON01_01
 1.0000E-06  Akt_bak(20)     Background vertical mixing coefficient (m2/s)
                               for tracer 20: DON01_02
 1.0000E-06  Akt_bak(21)     Background vertical mixing coefficient (m2/s)
                               for tracer 21: DON02_01
 1.0000E-06  Akt_bak(22)     Background vertical mixing coefficient (m2/s)
                               for tracer 22: DON02_02
 1.0000E-06  Akt_bak(23)     Background vertical mixing coefficient (m2/s)
                               for tracer 23: DOP01_01
 1.0000E-06  Akt_bak(24)     Background vertical mixing coefficient (m2/s)
                               for tracer 24: DOP01_02
 1.0000E-06  Akt_bak(25)     Background vertical mixing coefficient (m2/s)
                               for tracer 25: DOP02_01
 1.0000E-06  Akt_bak(26)     Background vertical mixing coefficient (m2/s)
                               for tracer 26: DOP02_02
 1.0000E-06  Akt_bak(27)     Background vertical mixing coefficient (m2/s)
                               for tracer 27: POC01_01
 1.0000E-06  Akt_bak(28)     Background vertical mixing coefficient (m2/s)
                               for tracer 28: POC01_02
 1.0000E-06  Akt_bak(29)     Background vertical mixing coefficient (m2/s)
                               for tracer 29: POC02_01
 1.0000E-06  Akt_bak(30)     Background vertical mixing coefficient (m2/s)
                               for tracer 30: POC02_02
 1.0000E-06  Akt_bak(31)     Background vertical mixing coefficient (m2/s)
                               for tracer 31: POC03_01
 1.0000E-06  Akt_bak(32)     Background vertical mixing coefficient (m2/s)
                               for tracer 32: POC03_02
 1.0000E-06  Akt_bak(33)     Background vertical mixing coefficient (m2/s)
                               for tracer 33: PON01_01
 1.0000E-06  Akt_bak(34)     Background vertical mixing coefficient (m2/s)
                               for tracer 34: PON01_02
 1.0000E-06  Akt_bak(35)     Background vertical mixing coefficient (m2/s)
                               for tracer 35: PON02_01
 1.0000E-06  Akt_bak(36)     Background vertical mixing coefficient (m2/s)
                               for tracer 36: PON02_02
 1.0000E-06  Akt_bak(37)     Background vertical mixing coefficient (m2/s)
                               for tracer 37: PON03_01
 1.0000E-06  Akt_bak(38)     Background vertical mixing coefficient (m2/s)
                               for tracer 38: PON03_02
 1.0000E-06  Akt_bak(39)     Background vertical mixing coefficient (m2/s)
                               for tracer 39: POP01_01
 1.0000E-06  Akt_bak(40)     Background vertical mixing coefficient (m2/s)
                               for tracer 40: POP01_02
 1.0000E-06  Akt_bak(41)     Background vertical mixing coefficient (m2/s)
                               for tracer 41: POP02_01
 1.0000E-06  Akt_bak(42)     Background vertical mixing coefficient (m2/s)
                               for tracer 42: POP02_02
 1.0000E-06  Akt_bak(43)     Background vertical mixing coefficient (m2/s)
                               for tracer 43: POP03_01
 1.0000E-06  Akt_bak(44)     Background vertical mixing coefficient (m2/s)
                               for tracer 44: POP03_02
 1.0000E-06  Akt_bak(45)     Background vertical mixing coefficient (m2/s)
                               for tracer 45: PhyC01_01
 1.0000E-06  Akt_bak(46)     Background vertical mixing coefficient (m2/s)
                               for tracer 46: PhyC01_02
 1.0000E-06  Akt_bak(47)     Background vertical mixing coefficient (m2/s)
                               for tracer 47: PhyC02_01
 1.0000E-06  Akt_bak(48)     Background vertical mixing coefficient (m2/s)
                               for tracer 48: PhyC02_02
 1.0000E-06  Akt_bak(49)     Background vertical mixing coefficient (m2/s)
                               for tracer 49: PhyC03_01
 1.0000E-06  Akt_bak(50)     Background vertical mixing coefficient (m2/s)
                               for tracer 50: PhyC03_02
 1.0000E-06  Akt_bak(51)     Background vertical mixing coefficient (m2/s)
                               for tracer 51: PhyC04_01
 1.0000E-06  Akt_bak(52)     Background vertical mixing coefficient (m2/s)
                               for tracer 52: PhyC04_02
 1.0000E-06  Akt_bak(53)     Background vertical mixing coefficient (m2/s)
                               for tracer 53: PhyN01_01
 1.0000E-06  Akt_bak(54)     Background vertical mixing coefficient (m2/s)
                               for tracer 54: PhyN01_02
 1.0000E-06  Akt_bak(55)     Background vertical mixing coefficient (m2/s)
                               for tracer 55: PhyN02_01
 1.0000E-06  Akt_bak(56)     Background vertical mixing coefficient (m2/s)
                               for tracer 56: PhyN02_02
 1.0000E-06  Akt_bak(57)     Background vertical mixing coefficient (m2/s)
                               for tracer 57: PhyN03_01
 1.0000E-06  Akt_bak(58)     Background vertical mixing coefficient (m2/s)
                               for tracer 58: PhyN03_02
 1.0000E-06  Akt_bak(59)     Background vertical mixing coefficient (m2/s)
                               for tracer 59: PhyN04_01
 1.0000E-06  Akt_bak(60)     Background vertical mixing coefficient (m2/s)
                               for tracer 60: PhyN04_02
 1.0000E-06  Akt_bak(61)     Background vertical mixing coefficient (m2/s)
                               for tracer 61: PhyP01_01
 1.0000E-06  Akt_bak(62)     Background vertical mixing coefficient (m2/s)
                               for tracer 62: PhyP01_02
 1.0000E-06  Akt_bak(63)     Background vertical mixing coefficient (m2/s)
                               for tracer 63: PhyP02_01
 1.0000E-06  Akt_bak(64)     Background vertical mixing coefficient (m2/s)
                               for tracer 64: PhyP02_02
 1.0000E-06  Akt_bak(65)     Background vertical mixing coefficient (m2/s)
                               for tracer 65: PhyP03_01
 1.0000E-06  Akt_bak(66)     Background vertical mixing coefficient (m2/s)
                               for tracer 66: PhyP03_02
 1.0000E-06  Akt_bak(67)     Background vertical mixing coefficient (m2/s)
                               for tracer 67: PhyP04_01
 1.0000E-06  Akt_bak(68)     Background vertical mixing coefficient (m2/s)
                               for tracer 68: PhyP04_02
 1.0000E-06  Akt_bak(69)     Background vertical mixing coefficient (m2/s)
                               for tracer 69: ZooC01_01
 1.0000E-06  Akt_bak(70)     Background vertical mixing coefficient (m2/s)
                               for tracer 70: ZooC01_02
 1.0000E-06  Akt_bak(71)     Background vertical mixing coefficient (m2/s)
                               for tracer 71: ZooN01_01
 1.0000E-06  Akt_bak(72)     Background vertical mixing coefficient (m2/s)
                               for tracer 72: ZooN01_02
 1.0000E-06  Akt_bak(73)     Background vertical mixing coefficient (m2/s)
                               for tracer 73: ZooP01_01
 1.0000E-06  Akt_bak(74)     Background vertical mixing coefficient (m2/s)
                               for tracer 74: ZooP01_02
 1.0000E-06  Akt_bak(75)     Background vertical mixing coefficient (m2/s)
                               for tracer 75: PIC01_01
 1.0000E-06  Akt_bak(76)     Background vertical mixing coefficient (m2/s)
                               for tracer 76: PIC01_02
 1.0000E-06  Akt_bak(77)     Background vertical mixing coefficient (m2/s)
                               for tracer 77: PIC02_01
 1.0000E-06  Akt_bak(78)     Background vertical mixing coefficient (m2/s)
                               for tracer 78: PIC02_02
 1.0000E+00  Tnudg(05)       Nudging/relaxation time scale (days)
                               for tracer 05: DO
 1.0000E+00  Tnudg(06)       Nudging/relaxation time scale (days)
                               for tracer 06: TA
 1.0000E+00  Tnudg(07)       Nudging/relaxation time scale (days)
                               for tracer 07: DIC_01
 1.0000E+00  Tnudg(08)       Nudging/relaxation time scale (days)
                               for tracer 08: DIC_02
 1.0000E+00  Tnudg(09)       Nudging/relaxation time scale (days)
                               for tracer 09: NO3_01
 1.0000E+00  Tnudg(10)       Nudging/relaxation time scale (days)
                               for tracer 10: NO3_02
 1.0000E+00  Tnudg(11)       Nudging/relaxation time scale (days)
                               for tracer 11: NH4_01
 1.0000E+00  Tnudg(12)       Nudging/relaxation time scale (days)
                               for tracer 12: NH4_02
 1.0000E+00  Tnudg(13)       Nudging/relaxation time scale (days)
                               for tracer 13: PO4_01
 1.0000E+00  Tnudg(14)       Nudging/relaxation time scale (days)
                               for tracer 14: PO4_02
 1.0000E+00  Tnudg(15)       Nudging/relaxation time scale (days)
                               for tracer 15: DOC01_01
 1.0000E+00  Tnudg(16)       Nudging/relaxation time scale (days)
                               for tracer 16: DOC01_02
 1.0000E+00  Tnudg(17)       Nudging/relaxation time scale (days)
                               for tracer 17: DOC02_01
 1.0000E+00  Tnudg(18)       Nudging/relaxation time scale (days)
                               for tracer 18: DOC02_02
 1.0000E+00  Tnudg(19)       Nudging/relaxation time scale (days)
                               for tracer 19: DON01_01
 1.0000E+00  Tnudg(20)       Nudging/relaxation time scale (days)
                               for tracer 20: DON01_02
 1.0000E+00  Tnudg(21)       Nudging/relaxation time scale (days)
                               for tracer 21: DON02_01
 1.0000E+00  Tnudg(22)       Nudging/relaxation time scale (days)
                               for tracer 22: DON02_02
 1.0000E+00  Tnudg(23)       Nudging/relaxation time scale (days)
                               for tracer 23: DOP01_01
 1.0000E+00  Tnudg(24)       Nudging/relaxation time scale (days)
                               for tracer 24: DOP01_02
 1.0000E+00  Tnudg(25)       Nudging/relaxation time scale (days)
                               for tracer 25: DOP02_01
 1.0000E+00  Tnudg(26)       Nudging/relaxation time scale (days)
                               for tracer 26: DOP02_02
 1.0000E+00  Tnudg(27)       Nudging/relaxation time scale (days)
                               for tracer 27: POC01_01
 1.0000E+00  Tnudg(28)       Nudging/relaxation time scale (days)
                               for tracer 28: POC01_02
 1.0000E+00  Tnudg(29)       Nudging/relaxation time scale (days)
                               for tracer 29: POC02_01
 1.0000E+00  Tnudg(30)       Nudging/relaxation time scale (days)
                               for tracer 30: POC02_02
 1.0000E+00  Tnudg(31)       Nudging/relaxation time scale (days)
                               for tracer 31: POC03_01
 1.0000E+00  Tnudg(32)       Nudging/relaxation time scale (days)
                               for tracer 32: POC03_02
 1.0000E+00  Tnudg(33)       Nudging/relaxation time scale (days)
                               for tracer 33: PON01_01
 1.0000E+00  Tnudg(34)       Nudging/relaxation time scale (days)
                               for tracer 34: PON01_02
 1.0000E+00  Tnudg(35)       Nudging/relaxation time scale (days)
                               for tracer 35: PON02_01
 1.0000E+00  Tnudg(36)       Nudging/relaxation time scale (days)
                               for tracer 36: PON02_02
 1.0000E+00  Tnudg(37)       Nudging/relaxation time scale (days)
                               for tracer 37: PON03_01
 1.0000E+00  Tnudg(38)       Nudging/relaxation time scale (days)
                               for tracer 38: PON03_02
 1.0000E+00  Tnudg(39)       Nudging/relaxation time scale (days)
                               for tracer 39: POP01_01
 1.0000E+00  Tnudg(40)       Nudging/relaxation time scale (days)
                               for tracer 40: POP01_02
 1.0000E+00  Tnudg(41)       Nudging/relaxation time scale (days)
                               for tracer 41: POP02_01
 1.0000E+00  Tnudg(42)       Nudging/relaxation time scale (days)
                               for tracer 42: POP02_02
 1.0000E+00  Tnudg(43)       Nudging/relaxation time scale (days)
                               for tracer 43: POP03_01
 1.0000E+00  Tnudg(44)       Nudging/relaxation time scale (days)
                               for tracer 44: POP03_02
 1.0000E+00  Tnudg(45)       Nudging/relaxation time scale (days)
                               for tracer 45: PhyC01_01
 1.0000E+00  Tnudg(46)       Nudging/relaxation time scale (days)
                               for tracer 46: PhyC01_02
 1.0000E+00  Tnudg(47)       Nudging/relaxation time scale (days)
                               for tracer 47: PhyC02_01
 1.0000E+00  Tnudg(48)       Nudging/relaxation time scale (days)
                               for tracer 48: PhyC02_02
 1.0000E+00  Tnudg(49)       Nudging/relaxation time scale (days)
                               for tracer 49: PhyC03_01
 1.0000E+00  Tnudg(50)       Nudging/relaxation time scale (days)
                               for tracer 50: PhyC03_02
 1.0000E+00  Tnudg(51)       Nudging/relaxation time scale (days)
                               for tracer 51: PhyC04_01
 1.0000E+00  Tnudg(52)       Nudging/relaxation time scale (days)
                               for tracer 52: PhyC04_02
 1.0000E+00  Tnudg(53)       Nudging/relaxation time scale (days)
                               for tracer 53: PhyN01_01
 1.0000E+00  Tnudg(54)       Nudging/relaxation time scale (days)
                               for tracer 54: PhyN01_02
 1.0000E+00  Tnudg(55)       Nudging/relaxation time scale (days)
                               for tracer 55: PhyN02_01
 1.0000E+00  Tnudg(56)       Nudging/relaxation time scale (days)
                               for tracer 56: PhyN02_02
 1.0000E+00  Tnudg(57)       Nudging/relaxation time scale (days)
                               for tracer 57: PhyN03_01
 1.0000E+00  Tnudg(58)       Nudging/relaxation time scale (days)
                               for tracer 58: PhyN03_02
 1.0000E+00  Tnudg(59)       Nudging/relaxation time scale (days)
                               for tracer 59: PhyN04_01
 1.0000E+00  Tnudg(60)       Nudging/relaxation time scale (days)
                               for tracer 60: PhyN04_02
 1.0000E+00  Tnudg(61)       Nudging/relaxation time scale (days)
                               for tracer 61: PhyP01_01
 1.0000E+00  Tnudg(62)       Nudging/relaxation time scale (days)
                               for tracer 62: PhyP01_02
 1.0000E+00  Tnudg(63)       Nudging/relaxation time scale (days)
                               for tracer 63: PhyP02_01
 1.0000E+00  Tnudg(64)       Nudging/relaxation time scale (days)
                               for tracer 64: PhyP02_02
 1.0000E+00  Tnudg(65)       Nudging/relaxation time scale (days)
                               for tracer 65: PhyP03_01
 1.0000E+00  Tnudg(66)       Nudging/relaxation time scale (days)
                               for tracer 66: PhyP03_02
 1.0000E+00  Tnudg(67)       Nudging/relaxation time scale (days)
                               for tracer 67: PhyP04_01
 1.0000E+00  Tnudg(68)       Nudging/relaxation time scale (days)
                               for tracer 68: PhyP04_02
 1.0000E+00  Tnudg(69)       Nudging/relaxation time scale (days)
                               for tracer 69: ZooC01_01
 1.0000E+00  Tnudg(70)       Nudging/relaxation time scale (days)
                               for tracer 70: ZooC01_02
 1.0000E+00  Tnudg(71)       Nudging/relaxation time scale (days)
                               for tracer 71: ZooN01_01
 1.0000E+00  Tnudg(72)       Nudging/relaxation time scale (days)
                               for tracer 72: ZooN01_02
 1.0000E+00  Tnudg(73)       Nudging/relaxation time scale (days)
                               for tracer 73: ZooP01_01
 1.0000E+00  Tnudg(74)       Nudging/relaxation time scale (days)
                               for tracer 74: ZooP01_02
 1.0000E+00  Tnudg(75)       Nudging/relaxation time scale (days)
                               for tracer 75: PIC01_01
 1.0000E+00  Tnudg(76)       Nudging/relaxation time scale (days)
                               for tracer 76: PIC01_02
 1.0000E+00  Tnudg(77)       Nudging/relaxation time scale (days)
                               for tracer 77: PIC02_01
 1.0000E+00  Tnudg(78)       Nudging/relaxation time scale (days)
                               for tracer 78: PIC02_02
          T  Hout(idTvar)    Write out tracer 05: DO
          T  Hout(idTvar)    Write out tracer 06: TA
          T  Hout(idTvar)    Write out tracer 07: DIC_01
          T  Hout(idTvar)    Write out tracer 08: DIC_02
          T  Hout(idTvar)    Write out tracer 09: NO3_01
          T  Hout(idTvar)    Write out tracer 10: NO3_02
          T  Hout(idTvar)    Write out tracer 11: NH4_01
          T  Hout(idTvar)    Write out tracer 12: NH4_02
          T  Hout(idTvar)    Write out tracer 13: PO4_01
          T  Hout(idTvar)    Write out tracer 14: PO4_02
          T  Hout(idTvar)    Write out tracer 15: DOC01_01
          T  Hout(idTvar)    Write out tracer 16: DOC01_02
          T  Hout(idTvar)    Write out tracer 17: DOC02_01
          T  Hout(idTvar)    Write out tracer 18: DOC02_02
          T  Hout(idTvar)    Write out tracer 19: DON01_01
          T  Hout(idTvar)    Write out tracer 20: DON01_02
          T  Hout(idTvar)    Write out tracer 21: DON02_01
          T  Hout(idTvar)    Write out tracer 22: DON02_02
          T  Hout(idTvar)    Write out tracer 23: DOP01_01
          T  Hout(idTvar)    Write out tracer 24: DOP01_02
          T  Hout(idTvar)    Write out tracer 25: DOP02_01
          T  Hout(idTvar)    Write out tracer 26: DOP02_02
          T  Hout(idTvar)    Write out tracer 27: POC01_01
          T  Hout(idTvar)    Write out tracer 28: POC01_02
          T  Hout(idTvar)    Write out tracer 29: POC02_01
          T  Hout(idTvar)    Write out tracer 30: POC02_02
          T  Hout(idTvar)    Write out tracer 31: POC03_01
          T  Hout(idTvar)    Write out tracer 32: POC03_02
          T  Hout(idTvar)    Write out tracer 33: PON01_01
          T  Hout(idTvar)    Write out tracer 34: PON01_02
          T  Hout(idTvar)    Write out tracer 35: PON02_01
          T  Hout(idTvar)    Write out tracer 36: PON02_02
          T  Hout(idTvar)    Write out tracer 37: PON03_01
          T  Hout(idTvar)    Write out tracer 38: PON03_02
          T  Hout(idTvar)    Write out tracer 39: POP01_01
          T  Hout(idTvar)    Write out tracer 40: POP01_02
          T  Hout(idTvar)    Write out tracer 41: POP02_01
          T  Hout(idTvar)    Write out tracer 42: POP02_02
          T  Hout(idTvar)    Write out tracer 43: POP03_01
          T  Hout(idTvar)    Write out tracer 44: POP03_02
          T  Hout(idTvar)    Write out tracer 45: PhyC01_01
          T  Hout(idTvar)    Write out tracer 46: PhyC01_02
          T  Hout(idTvar)    Write out tracer 47: PhyC02_01
          T  Hout(idTvar)    Write out tracer 48: PhyC02_02
          T  Hout(idTvar)    Write out tracer 49: PhyC03_01
          T  Hout(idTvar)    Write out tracer 50: PhyC03_02
          T  Hout(idTvar)    Write out tracer 51: PhyC04_01
          T  Hout(idTvar)    Write out tracer 52: PhyC04_02
          T  Hout(idTvar)    Write out tracer 53: PhyN01_01
          T  Hout(idTvar)    Write out tracer 54: PhyN01_02
          T  Hout(idTvar)    Write out tracer 55: PhyN02_01
          T  Hout(idTvar)    Write out tracer 56: PhyN02_02
          T  Hout(idTvar)    Write out tracer 57: PhyN03_01
          T  Hout(idTvar)    Write out tracer 58: PhyN03_02
          T  Hout(idTvar)    Write out tracer 59: PhyN04_01
          T  Hout(idTvar)    Write out tracer 60: PhyN04_02
          T  Hout(idTvar)    Write out tracer 61: PhyP01_01
          T  Hout(idTvar)    Write out tracer 62: PhyP01_02
          T  Hout(idTvar)    Write out tracer 63: PhyP02_01
          T  Hout(idTvar)    Write out tracer 64: PhyP02_02
          T  Hout(idTvar)    Write out tracer 65: PhyP03_01
          T  Hout(idTvar)    Write out tracer 66: PhyP03_02
          T  Hout(idTvar)    Write out tracer 67: PhyP04_01
          T  Hout(idTvar)    Write out tracer 68: PhyP04_02
          T  Hout(idTvar)    Write out tracer 69: ZooC01_01
          T  Hout(idTvar)    Write out tracer 70: ZooC01_02
          T  Hout(idTvar)    Write out tracer 71: ZooN01_01
          T  Hout(idTvar)    Write out tracer 72: ZooN01_02
          T  Hout(idTvar)    Write out tracer 73: ZooP01_01
          T  Hout(idTvar)    Write out tracer 74: ZooP01_02
          T  Hout(idTvar)    Write out tracer 75: PIC01_01
          T  Hout(idTvar)    Write out tracer 76: PIC01_02
          T  Hout(idTvar)    Write out tracer 77: PIC02_01
          T  Hout(idTvar)    Write out tracer 78: PIC02_02
          T  Hout(iHbio2)    Write out seagrass_SgCBm01_01
          T  Hout(iHbio2)    Write out seagrass_SgCBm01_02
          T  Hout(iHbio2)    Write out seagrass_SgNBm01_01
          T  Hout(iHbio2)    Write out seagrass_SgNBm01_02
          T  Hout(iHbio2)    Write out seagrass_SgPBm01_01
          T  Hout(iHbio2)    Write out seagrass_SgPBm01_02
          T  Hout(iHbio2)    Write out seagrass_DICstock01_01
          T  Hout(iHbio2)    Write out seagrass_DICstock01_02
          T  Hout(iHbio2)    Write out seagrass_CH2Ostock01_01
          T  Hout(iHbio2)    Write out seagrass_CH2Ostock01_02
          T  Hout(iHbio2)    Write out seagrass_DOstock01
          T  Hout(iHbio2)    Write out seagrass_NO3stock01_01
          T  Hout(iHbio2)    Write out seagrass_NO3stock01_02
          T  Hout(iHbio2)    Write out seagrass_NH4stock01_01
          T  Hout(iHbio2)    Write out seagrass_NH4stock01_02
          T  Hout(iHbio2)    Write out seagrass_PO4stock01_01
          T  Hout(iHbio2)    Write out seagrass_PO4stock01_02
          T  Hout(iHbio2)    Write out seagrass_LfCBm01
          T  Hout(iHbio2)    Write out seagrass_RtCBm01
          T  Hout(iHbio2)    Write out seagrass_TotSgCBmS01
          T  Hout(iHbio2)    Write out seagrass_TotSgCBm01
          T  Hout(iHbio2)    Write out seagrass_TotLfCBm01
          T  Hout(iHbio2)    Write out seagrass_TotRtCBm01
          T  Hout(iHbio2)    Write out seagrass_LAI01
          T  Hout(iHbio2)    Write out seagrass_LA01
          T  Hout(iHbio2)    Write out seagrass_ELAP01
          T  Hout(iHbio2)    Write out seagrass_Phot01
          T  Hout(iHbio2)    Write out seagrass_Grow01
          T  Hout(iHbio2)    Write out seagrass_Phot_Limiting01
          T  Hout(iHbio2)    Write out seagrass_Grow_Limiting01
          T  Hout(iHbio2)    Write out seagrass_Resp01
          T  Hout(iHbio2)    Write out seagrass_Net_Phot01
          T  Hout(iHbio2)    Write out seagrass_Dieoff01
          T  Qout(iHbiosed3) Write out sediment_poro
          T  Qout(iHbiosed3) Write out sediment_Tmp
          T  Qout(iHbiosed3) Write out sediment_Sal
          T  Qout(iHbiosed3) Write out sediment_O2
          T  Qout(iHbiosed3) Write out sediment_TA
          T  Qout(iHbiosed3) Write out sediment_DIC_01
          T  Qout(iHbiosed3) Write out sediment_DIC_02
          T  Qout(iHbiosed3) Write out sediment_NO3_01
          T  Qout(iHbiosed3) Write out sediment_NO3_02
          T  Qout(iHbiosed3) Write out sediment_NH4_01
          T  Qout(iHbiosed3) Write out sediment_NH4_02
          T  Qout(iHbiosed3) Write out sediment_PO4_01
          T  Qout(iHbiosed3) Write out sediment_PO4_02
          T  Qout(iHbiosed3) Write out sediment_DOC01_01
          T  Qout(iHbiosed3) Write out sediment_DOC01_02
          T  Qout(iHbiosed3) Write out sediment_DOC02_01
          T  Qout(iHbiosed3) Write out sediment_DOC02_02
          T  Qout(iHbiosed3) Write out sediment_POC01_01
          T  Qout(iHbiosed3) Write out sediment_POC01_02
          T  Qout(iHbiosed3) Write out sediment_POC02_01
          T  Qout(iHbiosed3) Write out sediment_POC02_02
          T  Qout(iHbiosed3) Write out sediment_POC03_01
          T  Qout(iHbiosed3) Write out sediment_POC03_02
          T  Qout(iHbiosed3) Write out sediment_DON01_01
          T  Qout(iHbiosed3) Write out sediment_DON01_02
          T  Qout(iHbiosed3) Write out sediment_DON02_01
          T  Qout(iHbiosed3) Write out sediment_DON02_02
          T  Qout(iHbiosed3) Write out sediment_PON01_01
          T  Qout(iHbiosed3) Write out sediment_PON01_02
          T  Qout(iHbiosed3) Write out sediment_PON02_01
          T  Qout(iHbiosed3) Write out sediment_PON02_02
          T  Qout(iHbiosed3) Write out sediment_PON03_01
          T  Qout(iHbiosed3) Write out sediment_PON03_02
          T  Qout(iHbiosed3) Write out sediment_DOP01_01
          T  Qout(iHbiosed3) Write out sediment_DOP01_02
          T  Qout(iHbiosed3) Write out sediment_DOP02_01
          T  Qout(iHbiosed3) Write out sediment_DOP02_02
          T  Qout(iHbiosed3) Write out sediment_POP01_01
          T  Qout(iHbiosed3) Write out sediment_POP01_02
          T  Qout(iHbiosed3) Write out sediment_POP02_01
          T  Qout(iHbiosed3) Write out sediment_POP02_02
          T  Qout(iHbiosed3) Write out sediment_POP03_01
          T  Qout(iHbiosed3) Write out sediment_POP03_02
          T  Qout(iHbiosed3) Write out sediment_PIC_01
          T  Qout(iHbiosed3) Write out sediment_PIC_02
          T  Qout(iHbiosed3) Write out sediment_Mn2
          T  Qout(iHbiosed3) Write out sediment_MnO2
          T  Qout(iHbiosed3) Write out sediment_Fe2
          T  Qout(iHbiosed3) Write out sediment_FeS_01
          T  Qout(iHbiosed3) Write out sediment_FeS2_01
          T  Qout(iHbiosed3) Write out sediment_FeOOH
          T  Qout(iHbiosed3) Write out sediment_FeOOH_PO4_01
          T  Qout(iHbiosed3) Write out sediment_FeOOH_PO4_02
          T  Qout(iHbiosed3) Write out sediment_H2S_01
          T  Qout(iHbiosed3) Write out sediment_SO4_01
          T  Qout(iHbiosed3) Write out sediment_S0_01
          T  Dout(iDbio2)    Write out CO2_airsea
          T  Dout(iDbio2)    Write out pCO2
          T  Dout(iDbio2)    Write out O2_airsea
          T  Dout(iDbio2)    Write out PARbot
          T  Dout(iDbio2)    Write out Tau_ave
          T  Dout(iDbio3)    Write out pH
          T  Dout(iDbio3)    Write out Omega_arg
          T  Dout(iDbio3)    Write out Omega_cal


 Sediment Parameters, Grid: 01
 =============================


 Size     Sd50        Csed        Srho        Wsed        Erate       poros
 Class    (mm)       (kg/m3)     (kg/m3)     (mm/s)     (kg/m2/s)    (nondim)

   1    1.2000E-02  0.0000E+00  2.6700E+03  1.0000E-01  1.0000E-05  5.0000E-01
   2    2.0000E-01  0.0000E+00  2.6700E+03  1.0000E+00  1.0000E-05  5.0000E-01

         tau_ce      tau_cd      nl_tnu2     nl_tnu4     Akt_bak      Tnudg
         (N/m2)      (N/m2)      (m2/s)      (m4/s)       (m2/s)      (day)

   1    7.0000E-02  2.0000E-02  0.0000E+00  0.0000E+00  5.0000E-06  1.0000E+02
   2    1.0000E+00  5.0000E-01  0.0000E+00  0.0000E+00  5.0000E-06  1.0000E+02

         morph_fac
         (nondim)

   1    1.0000E+00
   2    1.0000E+00

 New bed layer formed when deposition exceeds  0.10000E-01 (m).
 Two first layers are combined when 2nd layer smaller than  0.00000E+00 (m).
 Rate coefficient for bed load transport =  0.15000E+00

          F  LtracerSponge(03Turning OFF sponge on tracer 03: mud_01
          F  LtracerSponge(04Turning OFF sponge on tracer 04: mud_02
          T  LtracerSrc(03)  Turning ON  point sources/Sink on tracer 03: mud_01
          F  LtracerSrc(04)  Turning OFF point sources/Sink on tracer 04: mud_02
          F  LtracerCLM(03)  Turning OFF processing of climatology tracer 03: mud_01
          F  LtracerCLM(04)  Turning OFF processing of climatology tracer 04: mud_02
          F  LnudgeTCLM(03)  Turning OFF nudging of climatology tracer 03: mud_01
          F  LnudgeTCLM(04)  Turning OFF nudging of climatology tracer 04: mud_02

          T  Hout(idTvar)   Write out sediment01: mud_01
          T  Hout(idTvar)   Write out sediment02: mud_02
          T  Hout(idfrac)   Write out bed fraction, sediment 01: mudfrac_01
          T  Hout(idfrac)   Write out bed fraction, sediment 02: mudfrac_02
          T  Hout(idfrac)   Write out mass, sediment 01: mudmass_01
          T  Hout(idfrac)   Write out mass, sediment 02: mudmass_02
          T  Hout(idSbed)   Write out BED property 01: bed_thickness
          T  Hout(idSbed)   Write out BED property 02: bed_age
          T  Hout(idSbed)   Write out BED property 03: bed_porosity
          T  Hout(idSbed)   Write out BED property 04: bed_biodiff


 Lateral Boundary Conditions: NLM
 ============================

 Variable               Grid  West Edge    South Edge   East Edge    North Edge
 ---------              ----  ----------   ----------   ----------   ----------

 zeta                     1   Closed       Chapman Imp  Chapman Imp  Chapman Imp

 ubar                     1   Closed       Flather      Flather      Flather

 vbar                     1   Closed       Flather      Flather      Flather

 u                        1   Closed       Rad + Nud    Rad + Nud    Rad + Nud

 v                        1   Closed       Rad + Nud    Rad + Nud    Rad + Nud

 temp                     1   Closed       Rad + Nud    Rad + Nud    Rad + Nud

 salt                     1   Closed       Rad + Nud    Rad + Nud    Rad + Nud

 mud_01                   1   Closed       Rad + Nud    Rad + Nud    Rad + Nud

 mud_02                   1   Closed       Rad + Nud    Rad + Nud    Rad + Nud

 DO                       1   Closed       Rad + Nud    Rad + Nud    Rad + Nud

 TA                       1   Closed       Rad + Nud    Rad + Nud    Rad + Nud

 DIC_01                   1   Closed       Rad + Nud    Rad + Nud    Rad + Nud

 DIC_02                   1   Closed       Rad + Nud    Rad + Nud    Rad + Nud

 NO3_01                   1   Closed       Rad + Nud    Rad + Nud    Rad + Nud

 NO3_02                   1   Closed       Rad + Nud    Rad + Nud    Rad + Nud

 NH4_01                   1   Closed       Rad + Nud    Rad + Nud    Rad + Nud

 NH4_02                   1   Closed       Rad + Nud    Rad + Nud    Rad + Nud

 PO4_01                   1   Closed       Rad + Nud    Rad + Nud    Rad + Nud

 PO4_02                   1   Closed       Rad + Nud    Rad + Nud    Rad + Nud

 DOC01_01                 1   Closed       Rad + Nud    Rad + Nud    Rad + Nud

 DOC01_02                 1   Closed       Rad + Nud    Rad + Nud    Rad + Nud

 DOC02_01                 1   Closed       Rad + Nud    Rad + Nud    Rad + Nud

 DOC02_02                 1   Closed       Rad + Nud    Rad + Nud    Rad + Nud

 DON01_01                 1   Closed       Rad + Nud    Rad + Nud    Rad + Nud

 DON01_02                 1   Closed       Rad + Nud    Rad + Nud    Rad + Nud

 DON02_01                 1   Closed       Rad + Nud    Rad + Nud    Rad + Nud

 DON02_02                 1   Closed       Rad + Nud    Rad + Nud    Rad + Nud

 DOP01_01                 1   Closed       Rad + Nud    Rad + Nud    Rad + Nud

 DOP01_02                 1   Closed       Rad + Nud    Rad + Nud    Rad + Nud

 DOP02_01                 1   Closed       Rad + Nud    Rad + Nud    Rad + Nud

 DOP02_02                 1   Closed       Rad + Nud    Rad + Nud    Rad + Nud

 POC01_01                 1   Closed       Rad + Nud    Rad + Nud    Rad + Nud

 POC01_02                 1   Closed       Rad + Nud    Rad + Nud    Rad + Nud

 POC02_01                 1   Closed       Rad + Nud    Rad + Nud    Rad + Nud

 POC02_02                 1   Closed       Rad + Nud    Rad + Nud    Rad + Nud

 POC03_01                 1   Closed       Rad + Nud    Rad + Nud    Rad + Nud

 POC03_02                 1   Closed       Rad + Nud    Rad + Nud    Rad + Nud

 PON01_01                 1   Closed       Rad + Nud    Rad + Nud    Rad + Nud

 PON01_02                 1   Closed       Rad + Nud    Rad + Nud    Rad + Nud

 PON02_01                 1   Closed       Rad + Nud    Rad + Nud    Rad + Nud

 PON02_02                 1   Closed       Rad + Nud    Rad + Nud    Rad + Nud

 PON03_01                 1   Closed       Rad + Nud    Rad + Nud    Rad + Nud

 PON03_02                 1   Closed       Rad + Nud    Rad + Nud    Rad + Nud

 POP01_01                 1   Closed       Rad + Nud    Rad + Nud    Rad + Nud

 POP01_02                 1   Closed       Rad + Nud    Rad + Nud    Rad + Nud

 POP02_01                 1   Closed       Rad + Nud    Rad + Nud    Rad + Nud

 POP02_02                 1   Closed       Rad + Nud    Rad + Nud    Rad + Nud

 POP03_01                 1   Closed       Rad + Nud    Rad + Nud    Rad + Nud

 POP03_02                 1   Closed       Rad + Nud    Rad + Nud    Rad + Nud

 PhyC01_01                1   Closed       Rad + Nud    Rad + Nud    Rad + Nud

 PhyC01_02                1   Closed       Rad + Nud    Rad + Nud    Rad + Nud

 PhyC02_01                1   Closed       Rad + Nud    Rad + Nud    Rad + Nud

 PhyC02_02                1   Closed       Rad + Nud    Rad + Nud    Rad + Nud

 PhyC03_01                1   Closed       Rad + Nud    Rad + Nud    Rad + Nud

 PhyC03_02                1   Closed       Rad + Nud    Rad + Nud    Rad + Nud

 PhyC04_01                1   Closed       Rad + Nud    Rad + Nud    Rad + Nud

 PhyC04_02                1   Closed       Rad + Nud    Rad + Nud    Rad + Nud

 PhyN01_01                1   Closed       Rad + Nud    Rad + Nud    Rad + Nud

 PhyN01_02                1   Closed       Rad + Nud    Rad + Nud    Rad + Nud

 PhyN02_01                1   Closed       Rad + Nud    Rad + Nud    Rad + Nud

 PhyN02_02                1   Closed       Rad + Nud    Rad + Nud    Rad + Nud

 PhyN03_01                1   Closed       Rad + Nud    Rad + Nud    Rad + Nud

 PhyN03_02                1   Closed       Rad + Nud    Rad + Nud    Rad + Nud

 PhyN04_01                1   Closed       Rad + Nud    Rad + Nud    Rad + Nud

 PhyN04_02                1   Closed       Rad + Nud    Rad + Nud    Rad + Nud

 PhyP01_01                1   Closed       Rad + Nud    Rad + Nud    Rad + Nud

 PhyP01_02                1   Closed       Rad + Nud    Rad + Nud    Rad + Nud

 PhyP02_01                1   Closed       Rad + Nud    Rad + Nud    Rad + Nud

 PhyP02_02                1   Closed       Rad + Nud    Rad + Nud    Rad + Nud

 PhyP03_01                1   Closed       Rad + Nud    Rad + Nud    Rad + Nud

 PhyP03_02                1   Closed       Rad + Nud    Rad + Nud    Rad + Nud

 PhyP04_01                1   Closed       Rad + Nud    Rad + Nud    Rad + Nud

 PhyP04_02                1   Closed       Rad + Nud    Rad + Nud    Rad + Nud

 ZooC01_01                1   Closed       Rad + Nud    Rad + Nud    Rad + Nud

 ZooC01_02                1   Closed       Rad + Nud    Rad + Nud    Rad + Nud

 ZooN01_01                1   Closed       Rad + Nud    Rad + Nud    Rad + Nud

 ZooN01_02                1   Closed       Rad + Nud    Rad + Nud    Rad + Nud

 ZooP01_01                1   Closed       Rad + Nud    Rad + Nud    Rad + Nud

 ZooP01_02                1   Closed       Rad + Nud    Rad + Nud    Rad + Nud

 PIC01_01                 1   Closed       Rad + Nud    Rad + Nud    Rad + Nud

 PIC01_02                 1   Closed       Rad + Nud    Rad + Nud    Rad + Nud

 PIC02_01                 1   Closed       Rad + Nud    Rad + Nud    Rad + Nud

 PIC02_02                 1   Closed       Rad + Nud    Rad + Nud    Rad + Nud

 tke                      1   Closed       Gradient     Gradient     Gradient

 ubar_stokes              1   Closed       Closed       Gradient     Closed

 vbar_stokes              1   Closed       Closed       Gradient     Closed

 u_stokes                 1   Closed       Closed       Gradient     Closed

 v_stokes                 1   Closed       Closed       Gradient     Closed

 Activated C-preprocessing Options:

 SHIRAHO_REEF        Shiraho Reef Case
 ANA_BIOLOGY         Analytical biology initial conditions.
 ANA_BPFLUX          Analytical bottom passive tracers fluxes.
 ANA_BSFLUX          Analytical kinematic bottom salinity flux.
 ANA_BTFLUX          Analytical kinematic bottom temperature flux.
 ANA_PSOURCE         Analytical point sources and sinks.
 ANA_SEDIMENT        Analytical sediment initial conditions.
 ANA_SPFLUX          Analytical surface passive tracer fluxes.
 ASSUMED_SHAPE       Using assumed-shape arrays.
 ATM_PRESS           Impose atmospheric pressure onto sea surface.
 !BOUNDARY_ALLGATHER Using mpi_allreduce in mp_boundary routine.
 BULK_FLUXES         Surface bulk fluxes parameterization.
 !COLLECT_ALL...     Using mpi_isend/mpi_recv in mp_collect routine.
 DIAGNOSTICS_BIO     Computing and writing biological diagnostic terms.
 DIFF_3DCOEF         Horizontal, time-dependent 3D diffusion coefficient.
 DJ_GRADPS           Parabolic Splines density Jacobian (Shchepetkin, 2002).
 DOUBLE_PRECISION    Double precision arithmetic.
 EMINUSP             Compute Salt Flux using E-P.
 GLS_MIXING          Generic Length-Scale turbulence closure.
 KANTHA_CLAYSON      Kantha and Clayson stability function formulation.
 LIMIT_VDIFF         Impose an upper limit on vertical diffusion coefficient.
 LIMIT_VVISC         Impose an upper limit on vertical viscosity coefficient.
 LONGWAVE_OUT        Compute outgoing longwave radiation internally.
 MASKING             Land/Sea masking.
 MCT_LIB             Using Model Coupling Toolkit library.
 MIX_S_TS            Mixing of tracers along constant S-surfaces.
 MIX_S_UV            Mixing of momentum along constant S-surfaces.
 MPI                 MPI distributed-memory configuration.
 WEC_VF              Vortex Force wave current interaction.
 BOTTOM_STREAMING    Wave current streaming term.
 WDISS_WAVEMOD       Wave energy dissipation acquired from coupled wave model.
 NONLINEAR           Nonlinear Model.
 NONLIN_EOS          Nonlinear Equation of State for seawater.
 NO_LBC_ATT          Not checking NetCDF global attribute NLM_LBC during restart.
 POWER_LAW           Power-law shape time-averaging barotropic filter.
 PROFILE             Time profiling activated .
 K_GSCHEME           Third-order upstream advection of TKE fields.
 RADIATION_2D        Use tangential phase speed in radiation conditions.
 REDUCE_ALLGATHER    Using mpi_allgather in mp_reduce routine.
 !RST_SINGLE         Double precision fields in restart NetCDF file.
 SALINITY            Using salinity.
 SEDIMENT            Cohesive and noncohesive sediments.
 SUSPLOAD            Activate suspended sediment transport.
 NONCOHESIVE_BED1    Activate non-cohesive (original) sediment bed.
 SOLVE3D             Solving 3D Primitive Equations.
 SSW_BBL             Styles and Glenn Bottom Boundary Layer - modified.
 SWAN_COUPLING       SWAN model coupling.
 TKE_WAVEDISS        Wave breaking surface tke flux based on wave amplitude.
 TS_U3HADVECTION     Third-order upstream horizontal advection of tracers.
 TS_C4VADVECTION     Fourth-order centered vertical advection of tracers.
 TS_DIF2             Harmonic mixing of tracers.
 TS_SMAGORINSKY      Smagorinksy-like time-dependent diffusion coefficients.
 UV_ADV              Advection of momentum.
 UV_COR              Coriolis term.
 UV_U3HADVECTION     Third-order upstream horizontal advection of 3D momentum.
 UV_C4VADVECTION     Fourth-order centered vertical advection of momentum.
 UV_KIRBY            Compute uwave and vwave Kirby avg velocities.
 UV_VIS2             Harmonic mixing of momentum.
 UV_SMAGORINSKY      Smagorinksy-like time-dependent viscosity coefficients.
 VAR_RHO_2D          Variable density barotropic mode.
 VISC_3DCOEF         Horizontal, time-dependent 3D viscosity coefficient.
 WAVES_OCEAN         Two-way wave-ocean models coupling.
 WET_DRY             Wetting and drying activated.
 ZOS_HSIG            Wave amplitude used for Zos calculation.

 CHECKADJ - use caution when activating: TS_SMAGORINSKY
            REASON: stability problems, WARNING.

 CHECKADJ - use caution when activating: UV_SMAGORINSKY
            REASON: stability problems, WARNING.

 Process Information:

 Node #  0 (pid=       0) is active.
 yt_debug: mod_reef_ecosys.F allocate_reef_ecosys() finished seagrass aloc
 yt_debug: mod_reef_ecosys.F allocate_reef_ecosys() finished sediment aloc

 INITIAL: Configuring and initializing forward nonlinear model ...
 *******

    GET_GRID    - bathymetry at RHO-points: h
[...]
                   (Min =  0.00000000E+00 Max =  4.62036958E-01)
    GET_NGFLD   - 2D u-momentum northern boundary condition,       2023-10-04 00:00:00.00
                   (Grid= 01, Rec=0000097, Index=1, File: Shiraho_reef_bry_ROMS_Nz8_20230930.00.nc)
                   (Tmin=       8673.0000 Tmax=       8693.9583)      t =       8677.0000
                   (Min = -7.13654718E-02 Max =  1.97167824E-02)
    GET_NGFLD   - 2D v-momentum northern boundary condition,       2023-10-04 00:00:00.00
                   (Grid= 01, Rec=0000097, Index=1, File: Shiraho_reef_bry_ROMS_Nz8_20230930.00.nc)
                   (Tmin=       8673.0000 Tmax=       8693.9583)      t =       8677.0000
                   (Min = -1.48873136E-02 Max =  1.68314671E-01)
    GET_NGFLD   - 3D u-momentum eastern boundary condition,        2023-10-04 00:00:00.00
                   (Grid= 01, Rec=0000097, Index=1, File: Shiraho_reef_bry_ROMS_Nz8_20230930.00.nc)
                   (Tmin=       8673.0000 Tmax=       8693.9583)      t =       8677.0000
                   (Min = -1.84609464E-01 Max =  2.70951628E-01)
    GET_NGFLD   - 3D v-momentum eastern boundary condition,        2023-10-04 00:00:00.00
                   (Grid= 01, Rec=0000097, Index=1, File: Shiraho_reef_bry_ROMS_Nz8_20230930.00.nc)
                   (Tmin=       8673.0000 Tmax=       8693.9583)      t =       8677.0000
                   (Min = -4.62420253E-02 Max =  5.19243519E-01)
    GET_NGFLD   - 3D u-momentum southern boundary condition,       2023-10-04 00:00:00.00
                   (Grid= 01, Rec=0000097, Index=1, File: Shiraho_reef_bry_ROMS_Nz8_20230930.00.nc)
                   (Tmin=       8673.0000 Tmax=       8693.9583)      t =       8677.0000
                   (Min = -1.85296088E-01 Max =  2.90193410E-01)
    GET_NGFLD   - 3D v-momentum southern boundary condition,       2023-10-04 00:00:00.00
                   (Grid= 01, Rec=0000097, Index=1, File: Shiraho_reef_bry_ROMS_Nz8_20230930.00.nc)
                   (Tmin=       8673.0000 Tmax=       8693.9583)      t =       8677.0000
                   (Min = -4.62420253E-02 Max =  4.95193617E-01)
    GET_NGFLD   - 3D u-momentum northern boundary condition,       2023-10-04 00:00:00.00
                   (Grid= 01, Rec=0000097, Index=1, File: Shiraho_reef_bry_ROMS_Nz8_20230930.00.nc)
                   (Tmin=       8673.0000 Tmax=       8693.9583)      t =       8677.0000
                   (Min = -8.11886159E-02 Max =  7.48227722E-02)
    GET_NGFLD   - 3D v-momentum northern boundary condition,       2023-10-04 00:00:00.00
                   (Grid= 01, Rec=0000097, Index=1, File: Shiraho_reef_bry_ROMS_Nz8_20230930.00.nc)
                   (Tmin=       8673.0000 Tmax=       8693.9583)      t =       8677.0000
                   (Min = -2.65571947E-02 Max =  2.35619058E-01)
    GET_NGFLD   - temperature eastern boundary condition,          2023-10-04 00:00:00.00
                   (Grid= 01, Rec=0000097, Index=1, File: Shiraho_reef_bry_ROMS_Nz8_20230930.00.nc)
                   (Tmin=       8673.0000 Tmax=       8693.9583)      t =       8677.0000
                   (Min =  2.29261142E+01 Max =  2.93995005E+01)
    GET_NGFLD   - salinity eastern boundary condition,             2023-10-04 00:00:00.00
                   (Grid= 01, Rec=0000097, Index=1, File: Shiraho_reef_bry_ROMS_Nz8_20230930.00.nc)
                   (Tmin=       8673.0000 Tmax=       8693.9583)      t =       8677.0000
                   (Min =  3.43373378E+01 Max =  3.47173609E+01)
    GET_NGFLD   - temperature southern boundary condition,         2023-10-04 00:00:00.00
                   (Grid= 01, Rec=0000097, Index=1, File: Shiraho_reef_bry_ROMS_Nz8_20230930.00.nc)
                   (Tmin=       8673.0000 Tmax=       8693.9583)      t =       8677.0000
                   (Min =  2.32774987E+01 Max =  2.92909933E+01)
    GET_NGFLD   - salinity southern boundary condition,            2023-10-04 00:00:00.00
                   (Grid= 01, Rec=0000097, Index=1, File: Shiraho_reef_bry_ROMS_Nz8_20230930.00.nc)
                   (Tmin=       8673.0000 Tmax=       8693.9583)      t =       8677.0000
                   (Min =  3.43397482E+01 Max =  3.47010769E+01)
    GET_NGFLD   - temperature northern boundary condition,         2023-10-04 00:00:00.00
                   (Grid= 01, Rec=0000097, Index=1, File: Shiraho_reef_bry_ROMS_Nz8_20230930.00.nc)
                   (Tmin=       8673.0000 Tmax=       8693.9583)      t =       8677.0000
                   (Min =  2.56869306E+01 Max =  2.93629636E+01)
    GET_NGFLD   - salinity northern boundary condition,            2023-10-04 00:00:00.00
                   (Grid= 01, Rec=0000097, Index=1, File: Shiraho_reef_bry_ROMS_Nz8_20230930.00.nc)
                   (Tmin=       8673.0000 Tmax=       8693.9583)      t =       8677.0000
                   (Min =  3.43370067E+01 Max =  3.45717544E+01)
 149937852 2023-10-03 23:01:00.00  9.768689E-03  2.780515E+02  2.780613E+02  6.955135E+08
                       (30,153,1)  9.753272E-03  1.193346E-02  2.113990E-01  6.642268E-01
 149937864 2023-10-03 23:02:00.00  1.000967E-02  2.780493E+02  2.780594E+02  6.956039E+08
                       (30,153,1)  9.799254E-03  1.197776E-02  2.108445E-01  6.629431E-01
 149937876 2023-10-03 23:03:00.00  1.027133E-02  2.780478E+02  2.780581E+02  6.956863E+08
                       (30,153,1)  9.941560E-03  1.204982E-02  2.118786E-01  6.625734E-01
 149937888 2023-10-03 23:04:00.00  1.055164E-02  2.780468E+02  2.780573E+02  6.957655E+08
                       (30,153,1)  1.002683E-02  1.209133E-02  2.123384E-01  6.623574E-01
 149937900 2023-10-03 23:05:00.00  1.084852E-02  2.780466E+02  2.780574E+02  6.958436E+08
                       (30,153,1)  1.011821E-02  1.209381E-02  2.122811E-01  6.630977E-01
 149937912 2023-10-03 23:06:00.00  1.115970E-02  2.780475E+02  2.780587E+02  6.959204E+08
                       (30,153,1)  1.021087E-02  1.211583E-02  2.123080E-01  6.649389E-01
 149937924 2023-10-03 23:07:00.00  1.148307E-02  2.780495E+02  2.780610E+02  6.959951E+08
                       (30,153,1)  1.028892E-02  1.209130E-02  2.117580E-01  6.666675E-01
 149937936 2023-10-03 23:08:00.00  1.181803E-02  2.780524E+02  2.780642E+02  6.960672E+08
                       (30,153,1)  1.034663E-02  1.208518E-02  2.110957E-01  6.691420E-01
 149937948 2023-10-03 23:09:00.00  1.216521E-02  2.780558E+02  2.780680E+02  6.961368E+08
                       (30,153,1)  1.036386E-02  1.207004E-02  2.102092E-01  6.715319E-01
 == SWAN grid  1 sent wave data to ROMS grid  1
 == SWAN grid  1 recv data from ROMS grid  1
ROMStoSWAN Min/Max DEPTH   (m):       -1.000000E+01  1.017490E+02
ROMStoSWAN Min/Max WLEV    (m):        9.935844E-01  1.010000E+01
ROMStoSWAN Min/Max VELX    (ms- 149937960 2023-10-03 23:10:00.00  1.252494E-02  2.780594E+02  2.780719E+02  6.962045E+08
                       (30,153,1)  1.032739E-02  1.199039E-02  2.082305E-01  6.743690E-01
 ** ROMS grid  1 recv data from SWAN grid  1
SWANtoROMS Min/Max DISBOT  (Wm-1):    -2.338005E-01  1.430005E-01
ROMStoSWAN Min/Max VELY    (ms-1):    -1.996816E-01  5.287929E-01
ROMStoSWAN Min/Max ZO      (m):        5.000000E-02  7.500000E-02
2):     0.000000E+00  2.316442E-03
SWANtoROMS Min/Max DISSURF (Wm-2):     0.000000E+00  7.427081E-03
SWANtoROMS Min/Max DISWCAP (Wm-2):     0.000000E+00  6.753156E-05
SWANtoROMS Min/Max HSIGN   (m):        0.000000E+00  1.131876E+00
SWANtoROMS Min/Max RTP +time 20231009.232000   , step    428; iteration    1; sweep 1 grid   1
    (s):        0.000000E+00  1.118034E+01
SWANtoROMS Min/Max TMBOT   (s):        0.000000E+00  1.236093E+01
SWANtoROMS Min/Max UBOT    (ms-1):     0.000000E+00  5.551929E-01
SWANtoROMS Min/Max DIR     (deg):      1.413716E+00  3.964179E+00
SWANtoROMS Min/Max WLEN    (m):        1.000000E+00  1.614156E+01
 ** ROMS grid  1 sent data to SWAN grid  1
+time 20231009.232000   , step    428; iteration    1; sweep 2 grid   1
+time 20231009.232000   , step    428; iteration    1; sweep 3 grid   1
+time 20231009.232000   , step    428; iteration    1; sweep 4 grid   1
 149937972 2023-10-03 23:11:00.00  1.289689E-02  2.780628E+02  2.780757E+02  6.962709E+08
                       (30,153,1)  1.018032E-02  1.188679E-02  2.054717E-01  6.786247E-01
 149937984 2023-10-03 23:12:00.00  1.328109E-02  2.780658E+02  2.780790E+02  6.963376E+08
                       (24,158,2)  4.113064E-03  1.507972E-02  2.050824E-01  6.809992E-01
 149937996 2023-10-03 23:13:00.00  1.367849E-02  2.780672E+02  2.780809E+02  6.964058E+08
                       (24,158,2)  3.859721E-03  1.500455E-02  2.035812E-01  6.827829E-01
 149938008 2023-10-03 23:14:00.00  1.408948E-02  2.780679E+02  2.780820E+02  6.964773E+08
                       (24,158,2)  3.616263E-03  1.498332E-02  2.027902E-01  6.837559E-01
 149938020 2023-10-03 23:15:00.00  1.451233E-02  2.780680E+02  2.780825E+02  6.965514E+08
                       (24,158,2)  3.409032E-03  1.496204E-02  2.023531E-01  6.844646E-01
 149938032 2023-10-03 23:16:00.00  1.494692E-02  2.780676E+02  2.780825E+02  6.966268E+08
                       (24,158,2)  3.257571E-03  1.496433E-02  2.020200E-01  6.858502E-01
 149938044 2023-10-03 23:17:00.00  1.539283E-02  2.780666E+02  2.780820E+02  6.967036E+08
                       (24,158,2)  3.148090E-03  1.500916E-02  2.021284E-01  6.859085E-01
 149938056 2023-10-03 23:18:00.00  1.584967E-02  2.780652E+02  2.780811E+02  6.967819E+08
                       (24,158,2)  3.081366E-03  1.506065E-02  2.024224E-01  6.868298E-01
 149938068 2023-10-03 23:19:00.00  1.631784E-02  2.780636E+02  2.780799E+02  6.968612E+08
                       (24,158,2)  3.037898E-03  1.513487E-02  2.028575E-01  6.876672E-01
 == SWAN grid  1 sent wave data to ROMS grid  1
 == SWAN grid  1 recv data from ROMS grid  1
ROMStoSWAN Min/Max DEPTH   (m):       -1.000000E+01  1.017490E+02
ROMStoSWAN Min/Max WLEV    (m):        1.020031E+00  1.010000E+01
ROMStoSWAN Min/Max VELX    (ms- 149938080 2023-10-03 23:20:00.00  1.679656E-02  2.780620E+02  2.780788E+02  6.969411E+08
                       (24,158,2)  3.041264E-03  1.516640E-02  2.029698E-01  6.884176E-01
 ** ROMS grid  1 recv data from SWAN grid  1
SWANtoROMS Min/Max DISBOT  (Wm-1):    -2.575443E-01  1.250487E-01
ROMStoSWAN Min/Max VELY    (ms-1):    -1.935087E-01  5.374373E-01
ROMStoSWAN Min/Max ZO      (m):        5.000000E-02  7.500000E-02
2):     0.000000E+00  2.394159E-03
SWANtoROMS Min/Max DISSURF (Wm-2):     0.000000E+00  7.284405E-03
SWANtoROMS Min/Max DISWCAP (Wm-2):     0.000000E+00  7.656592E-05
SWANtoROMS Min/Max HSIGN   (m):        0.000000E+00  1.140622E+00
SWANtoROMS Min/Max RTP     (s):        0.000000E+00  1.118034E+01
SWANtoROMS Min/Max TMBOT   (s):        0.000000E+00  1.241517E+01
SWANtoROMS Min/Max UBOT    (ms-1):     0.000000E+00  5.552474E-01
SWANtoROMS Min/Max DIR     (deg):      1.413716E+00  3.955219E+00
SWANtoROMS Min/+time 20231009.233000   , step    429; iteration    1; sweep 1 grid   1
Max WLEN    (m):        1.000000E+00  1.611840E+01
 ** ROMS grid  1 sent data to SWAN grid  1
+time 20231009.233000   , step    429; iteration    1; sweep 2 grid   1
+time 20231009.233000   , step    429; iteration    1; sweep 3 grid   1
+time 20231009.233000   , step    429; iteration    1; sweep 4 grid   1
 149938092 2023-10-03 23:21:00.00  1.728593E-02  2.780607E+02  2.780780E+02  6.970204E+08
                       (24,158,2)  3.043738E-03  1.526145E-02  2.036732E-01  6.943280E-01
 149938104 2023-10-03 23:22:00.00  1.778548E-02  2.780599E+02  2.780776E+02  6.970992E+08
                       (24,158,2)  3.073296E-03  1.531439E-02  2.037960E-01  6.986781E-01
 149938116 2023-10-03 23:23:00.00  1.829521E-02  2.780592E+02  2.780775E+02  6.971770E+08
                       (24,158,2)  3.092431E-03  1.534612E-02  2.036606E-01  7.024786E-01
 149938128 2023-10-03 23:24:00.00  1.881483E-02  2.780593E+02  2.780781E+02  6.972540E+08
                       (24,158,2)  3.100879E-03  1.534717E-02  2.031970E-01  7.055855E-01
 149938140 2023-10-03 23:25:00.00  1.934346E-02  2.780597E+02  2.780790E+02  6.973298E+08
                       (24,158,2)  3.111385E-03  1.536459E-02  2.028350E-01  7.084164E-01
 149938152 2023-10-03 23:26:00.00  1.988196E-02  2.780603E+02  2.780801E+02  6.974044E+08
                       (24,158,2)  3.111871E-03  1.541153E-02  2.025908E-01  7.115575E-01
 149938164 2023-10-03 23:27:00.00  2.043127E-02  2.780608E+02  2.780812E+02  6.974785E+08
                       (24,158,2)  3.093482E-03  1.538548E-02  2.017676E-01  7.145567E-01
 149938176 2023-10-03 23:28:00.00  2.099189E-02  2.780614E+02  2.780824E+02  6.975523E+08
                       (24,158,2)  3.081242E-03  1.537504E-02  2.010424E-01  7.177187E-01
 149938188 2023-10-03 23:29:00.00  2.156368E-02  2.780622E+02  2.780837E+02  6.976259E+08
                       (24,158,2)  3.047870E-03  1.538452E-02  2.004884E-01  7.204981E-01
 Node   #  3 CPU:   10529.515
 Node   #  1 CPU:   10528.016
 Node   #  2 CPU:   10527.655
 Node   # 20 CPU:   10530.578
 Node   #  4 CPU:   10526.671
 Node   #  6 CPU:   10527.766
 Node   #  8 CPU:   10529.188
 Node   # 24 CPU:   10527.547
 Node   # 21 CPU:   10528.406
 Node   # 10 CPU:   10527.812
 Node   #  5 CPU:   10528.250
 == SWAN grid  1 sent wave data to ROMS grid  1
 == SWAN grid  1 recv data from ROMS grid  1
ROMStoSWAN Min/Max DEPTH   (m):       -1.000000E+01  1.017490E+02
ROMStoSWAN Min/Max WLEV    (m):        1.049184E+00  1.010000E+01
ROMStoSWAN Min/Max VELX    (ms- Node   # 23 CPU:   10530.641
 Node   #  9 CPU:   10527.844
 Node   # 13 CPU:   10526.936
 Node   # 15 CPU:   10529.672
 Node   # 16 CPU:   10529.203
 Node   # 17 CPU:   10527.000
 Node   # 14 CPU:   10529.906
 Node   # 19 CPU:   10527.609
 Node   # 18 CPU:   10528.031
 Node   # 12 CPU:   10528.220
 149938200 2023-10-03 23:30:00.00  2.214582E-02  2.780628E+02  2.780850E+02  6.976993E+08
                       (24,158,2)  3.025167E-03  1.533438E-02  1.993928E-01  7.233524E-01
 ** ROMS grid  1 recv data from SWAN grid  1
SWANtoROMS Min/Max DISBOT  (Wm- Node   # 11 CPU:   10528.812
 Node   #  7 CPU:   10529.672
 Node   # 22 CPU:   10529.391
 Node   # 26 CPU:   10530.781
 Node   # 27 CPU:   10528.874
 Node   # 25 CPU:   10527.890
1):    -2.804743E-01  1.405528E-01
ROMStoSWAN Min/Max VELY    (ms-1):    -1.877567E-01  5.609751E-01
ROMStoSWAN Min/Max ZO      (m):        5.000000E-02  7.500000E-02
+time 20231009.234000   , step    430; iteration    1; sweep 1 grid   1
2):     0.000000E+00  2.516111E-03
SWANtoROMS Min/Max DISSURF (Wm-2):     0.000000E+00  7.146024E-03
SWANtoROMS Min/Max DISWCAP (Wm-2):     0.000000E+00  9.256267E-05
SWANtoROMS Min/Max HSIGN   (m):        0.000000E+00  1.149410E+00
SWANtoROMS Min/Max RTP     (s):        0.000000E+00  1.118034E+01
SWANtoROMS Min/Max TMBOT   (s):        0.000000E+00  1.243864E+01
SWANtoROMS Min/Max UBOT    (ms-1):     0.000000E+00  5.557231E-01
SWANtoROMS Min/Max DIR     (deg):      1.413716E+00  3.943587E+00
SWANtoROMS Min/Max WLEN    (m):        1.000000E+00  1.608240E+01
 ** ROMS grid  1 sent data to SWAN grid  1
 Found Error: 05   Line: 4832     Source: ROMS/Modules/mod_netcdf.F, netcdf_put_fvar

 NETCDF_PUT_FVAR_1D - error while writing variable:  ocean_time
                      in input file:  Z:/COAWST_OUTPUT/Yaeyama/Shiraho_reef2_eco/SR_veg_eco2_sg_his_20231001_test_12.nc
                      call from:  ROMS/Utility/wrt_his.F
 Input/output error
 Found Error: 03   Line: 156      Source: ROMS/Utility/wrt_his.F
 Found Error: 03   Line: 170      Source: ROMS/Nonlinear/output.F
 Found Error: 03   Line: 630      Source: ROMS/Nonlinear/main3d.F
 Found Error: 03   Line: 320      Source: ROMS/Drivers/nl_ocean.h

 Elapsed CPU time (seconds):

 Node   #  0 CPU:   10370.125
 Total:            294642.011

 Nonlinear model elapsed CPU time profile, Grid: 01

  Allocation and array initialization ..............         0.696  ( 0.0002 %)
  Ocean state initialization .......................      1733.887  ( 0.5885 %)
  Reading of in+time 20231009.234000   , step    430; iteration    1; sweep 2 grid   1
put data ............................       408.327  ( 0.1386 %)
  Processing of input data .........................      7746.157  ( 2.6290 %)
  Processing of output time averaged data ..........         5.688  ( 0.0019 %)
  Computation of vertical boundary conditions ......         1.440  ( 0.0005 %)
  Computation of global information integrals ......       348.840  ( 0.1184 %)
  Writing of output data ...........................      6908.898  ( 2.3448 %)
  Model 2D kernel ..................................      7670.847  ( 2.6034 %)
  2D/3D coupling, vertical metrics .................       692.406  ( 0.2350 %)
  Omega vertical velocity ..........................       165.117  ( 0.0560 %)
  Equation of state for seawater ...................       666.661  ( 0.2263 %)
  Biological module, source/sink terms .............     55606.846  (18.8727 %)
  Sediment transport module, source/sink terms .....    113974.130  (38.6822 %)
  Atmosphere-Ocean bulk flux parameterization ......      1038.209  ( 0.3524 %)
  GLS vertical mixing parameterization .............      2432.569  ( 0.8256 %)
  3D equations right-side terms ....................      6302.137  ( 2.1389 %)
  3D equations predictor step ......................     44784.521  (15.1996 %)
  Pressure gradient ................................       136.463  ( 0.0463 %)
  Harmonic mixing of tracers, S-surfaces ...........      6536.511  ( 2.2185 %)
  Biharmonic mixing of tracers, geopotentials ......       204.869  ( 0.0695 %)
  Harmonic stress tensor, S-sur+time 20231009.234000   , step    430; iteration    1; sweep 3 grid   1
faces ...............       208.031  ( 0.0706 %)
  Corrector time-step for 3D momentum ..............       356.996  ( 0.1212 %)
  Corrector time-step for tracers ..................     35663.710  (12.1041 %)
  Bottom boundary layer module .....................       592.243  ( 0.2010 %)
  Reading model state vector .......................        25.762  ( 0.0087 %)
  Unused 03 ........................................      1740.022  ( 0.5906 %)
                                              Total:    295951.983  100.4446

 Nonlinear model message Passage profile, Grid: 01

  Message Passage: 2D halo exchanges ...............     15560.975  ( 5.2813 %)
  Message Passage: 3D halo exchanges ...............      8056.698  ( 2.7344 %)
  Message Passage: 4D halo exchanges ...............    120611.458  (40.9349 %)
  Message Passage: data broadcast ..................      4903.477  ( 1.6642 %)
  Message Passage: data reduction ..................        64.153  ( 0.0218 %)
  Message Passage: data gathering ..................      1108.073  ( 0.3761 %)
  Message Passage: boundary data gathering .........       485.303  ( 0.1647 %)
                                              Total:    150790.137   51.1774

  Unique code regions profiled .....................    295951.983  100.4446 %
  Residual, non-profiled code ......................     -1309.972   -0.4446 %


 All percentages are with respect to total time =       294642.011


 ROMS/TOMS - Output NetCDF summary for Grid 01:
             number of time records written in HISTORY file = 00000144
             number of time records written in RESTART file = 00000002

 Analytical header files used:

     ROMS/Functionals/ana_biology.h
     ROMS/Functionals/ana_btflux.h
     ROMS/Functionals/ana_psource.h
     ROMS/Functi+time 20231009.234000   , step    430; iteration    1; sweep 4 grid   1
onals/ana_sediment.h
     ROMS/Functionals/ana_stflux.h
     ROMS/Functionals/ana_tobc_bio.h

 Biology model header files used:

     ROMS/Nonlinear/Biology/reef_ecosys.h
 Found Error: 03   Line: 456      Source: ROMS/Utility/close_io.F

 ROMS/TOMS - Output error ............ exit_flag:   3


 ERROR: Abnormal termination: NetCDF OUTPUT.
 REASON: Input/output error                                                              
