 Coupled Input File name = coupling_shiraho_reef_20231001.in

 Model Coupling: 


       Ocean Model MPI nodes: 000 - 027

       Waves Model MPI nodes: 028 - 030

       WAVgrid 01 dt= 600.0 -to- OCNgrid 01 dt=   5.0, CplInt:   600.0 Steps: 001

       OCNgrid 01 dt=   5.0 -to- WAVgrid 01 dt= 600.0, CplInt:   600.0 Steps: 120

SWAN grid   1 is preparing computation

--------------------------------------------------------------------------------
 Model Input Parameters:  ROMS/TOMS version 3.7  
                          Wednesday - July 23, 2025 -  1:18:32 PM
 --------------------------------------------------------------------------------

 Shiraho Reef Case

 Operating system : CYGWIN
 CPU/hardware     : x86_64
 Compiler system  : gfortran
 Compiler command : /usr/bin/mpif90
 Compiler flags   : -frepack-arrays -w -fallow-argument-mismatch -mcmodel=large -O3 -I/usr/local/include -ffree-form -ffree-line-length-none

 Input Script  : 

 SVN Root URL  : https:://myroms.org/svn/src
 SVN Revision  : Unversioned directory

 Local Root    : /home/nakamulab1/yuta/COAWST/COAWST_Eco
 Header Dir    : /home/nakamulab1/yuta/COAWST/Projects/Shiraho_reef2_eco
 Header file   : shiraho_reef.h
 Analytical Dir: /home/nakamulab1/yuta/COAWST/Projects/Shiraho_reef2_eco

 Resolution, Grid 01: 0062x0190x008,  Parallel Nodes:  28,  Tiling: 004x007


 Physical Parameters, Grid: 01
 =============================

     120240  ntimes            Number of timesteps for 3-D equations.
      5.000  dt                Timestep size (s) for 3-D equations.
         20  ndtfast           Number of timesteps for 2-D equations between
                                 each 3D timestep.
          1  ERstr             Starting ensemble/perturbation run number.
          1  ERend             Ending ensemble/perturbation run number.
         -1  nrrec             Number of restart records to read from disk.
          T  LcycleRST         Switch to recycle time-records in restart file.
      17280  nRST              Number of timesteps between the writing of data
                                 into restart fields.
         12  ninfo             Number of timesteps between print of information
                                 to standard output.
          T  ldefout           Switch to create a new output NetCDF file(s).
        360  nHIS              Number of timesteps between the writing fields
                                 into history file.
        360  nQCK              Number of timesteps between the writing fields
                                 into quicksave file.
          1  ntsDIA            Starting timestep for the accumulation of output
                                 time-averaged diagnostics data.
        360  nDIA              Number of timesteps between the writing of
                                 time-averaged data into diagnostics file.
 5.0000E-01  nl_tnu2(01)       NLM Horizontal, harmonic mixing coefficient
                                 (m2/s) for tracer 01: temp
 5.0000E-01  nl_tnu2(02)       NLM Horizontal, harmonic mixing coefficient
                                 (m2/s) for tracer 02: salt
 1.0000E-01  nl_visc2          NLM Horizontal, harmonic mixing coefficient
                                 (m2/s) for momentum.
          F  LuvSponge         Turning OFF sponge on horizontal momentum.
          F  LtracerSponge(01) Turning OFF sponge on tracer 01: temp
          F  LtracerSponge(02) Turning OFF sponge on tracer 02: salt
 5.0000E-06  Akt_bak(01)       Background vertical mixing coefficient (m2/s)
                                 for tracer 01: temp
 5.0000E-06  Akt_bak(02)       Background vertical mixing coefficient (m2/s)
                                 for tracer 02: salt
 1.0000E-03  Akt_limit(01)     Vertical diffusion upper threshold (m2/s)
                                 for tracer 01: temp
 1.0000E-03  Akt_limit(02)     Vertical diffusion upper threshold (m2/s)
                                 for tracer 02: salt
 5.0000E-05  Akv_bak           Background vertical mixing coefficient (m2/s)
                                 for momentum.
 1.0000E-03  Akv_limit         Vertical viscosity upper threshold (m2/s)
                                 for momentum.
 5.0000E-06  Akk_bak           Background vertical mixing coefficient (m2/s)
                                 for turbulent energy.
 5.0000E-06  Akp_bak           Background vertical mixing coefficient (m2/s)
                                 for turbulent generic statistical field.
      3.000  gls_p             GLS stability exponent.
      1.500  gls_m             GLS turbulent kinetic energy exponent.
     -1.000  gls_n             GLS turbulent length scale exponent.
 7.6000E-06  gls_Kmin          GLS minimum value of turbulent kinetic energy.
 1.0000E-12  gls_Pmin          GLS minimum value of dissipation.
 5.4770E-01  gls_cmu0          GLS stability coefficient.
 1.4400E+00  gls_c1            GLS shear production coefficient.
 1.9200E+00  gls_c2            GLS dissipation coefficient.
-4.0000E-01  gls_c3m           GLS stable buoyancy production coefficient.
 1.0000E+00  gls_c3p           GLS unstable buoyancy production coefficient.
 1.0000E+00  gls_sigk          GLS constant Schmidt number for TKE.
 1.3000E+00  gls_sigp          GLS constant Schmidt number for PSI.
   1400.000  charnok_alpha     Charnok factor for Zos calculation.
      0.500  zos_hsig_alpha    Factor for Zos calculation using Hsig(Awave).
      0.020  sz_alpha          Factor for Wave dissipation surface tke flux .
    100.000  crgban_cw         Factor for Craig/Banner surface tke flux.
      0.500  wec_alpha         WEC factor for roller/breaking energy distribution.
 3.0000E-04  rdrg              Linear bottom drag coefficient (m/s).
 2.5000E-02  rdrg2             Quadratic bottom drag coefficient.
 3.0000E-02  Zob               Bottom roughness (m).
 5.0000E-01  Zos               Surface roughness (m).
 1.0000E+01  blk_ZQ            Height (m) of surface air humidity measurement.
 1.0000E+01  blk_ZT            Height (m) of surface air temperature measurement.
 1.0000E+01  blk_ZW            Height (m) of surface winds measurement.
 1.0000E-01  Dcrit             Minimum depth for wetting and drying (m).
          2  Vtransform        S-coordinate transformation equation.
          3  Vstretching       S-coordinate stretching function.
 1.0000E+00  theta_s           S-coordinate surface control parameter.
 1.0000E+00  theta_b           S-coordinate bottom  control parameter.
     30.000  Tcline            S-coordinate surface/bottom layer width (m) used
                                 in vertical coordinate stretching.
   1025.000  rho0              Mean density (kg/m3) for Boussinesq approximation.
      0.000  dstart            Time-stamp assigned to model initialization (days).
20000101.00  time_ref          Reference time for units attribute (yyyymmdd.dd)
 1.0000E+00  Tnudg(01)         Nudging/relaxation time scale (days)
                                 for tracer 01: temp
 1.0000E+00  Tnudg(02)         Nudging/relaxation time scale (days)
                                 for tracer 02: salt
 9.0000E+00  Znudg             Nudging/relaxation time scale (days)
                                 for free-surface.
 6.0000E+00  M2nudg            Nudging/relaxation time scale (days)
                                 for 2D momentum.
 1.0000E+00  M3nudg            Nudging/relaxation time scale (days)
                                 for 3D momentum.
 5.0000E+02  obcfac            Factor between passive and active
                                 open boundary conditions.
          F  VolCons(1)        NLM western  edge boundary volume conservation.
          F  VolCons(2)        NLM southern edge boundary volume conservation.
          F  VolCons(3)        NLM eastern  edge boundary volume conservation.
          F  VolCons(4)        NLM northern edge boundary volume conservation.
     25.000  T0                Background potential temperature (C) constant.
     34.700  S0                Background salinity (PSU) constant.
      1.000  gamma2            Slipperiness variable: free-slip (1.0) or 
                                                      no-slip (-1.0).
          F  LuvSrc            Turning OFF momentum point Sources/Sinks.
          T  LwSrc             Turning ON  volume influx point Sources/Sinks.
          T  LtracerSrc(01)    Turning ON  point Sources/Sinks on tracer 01: temp
          T  LtracerSrc(02)    Turning ON  point Sources/Sinks on tracer 02: salt
          F  LsshCLM           Turning OFF processing of SSH climatology.
          F  Lm2CLM            Turning OFF processing of 2D momentum climatology.
          F  Lm3CLM            Turning OFF processing of 3D momentum climatology.
          F  LtracerCLM(01)    Turning OFF processing of climatology tracer 01: temp
          F  LtracerCLM(02)    Turning OFF processing of climatology tracer 02: salt
          F  LnudgeM2CLM       Turning OFF nudging of 2D momentum climatology.
          F  LnudgeM3CLM       Turning OFF nudging of 3D momentum climatology.
          F  LnudgeTCLM(01)    Turning OFF nudging of climatology tracer 01: temp
          F  LnudgeTCLM(02)    Turning OFF nudging of climatology tracer 02: salt

          T  Hout(idFsur)      Write out free-surface.
          T  Hout(idUbar)      Write out 2D U-momentum component.
          T  Hout(idVbar)      Write out 2D V-momentum component.
          T  Hout(idUvel)      Write out 3D U-momentum component.
          T  Hout(idVvel)      Write out 3D V-momentum component.
          T  Hout(idWvel)      Write out W-momentum component.
          T  Hout(idOvel)      Write out omega vertical velocity.
          T  Hout(idTvar)      Write out tracer 01: temp
          T  Hout(idTvar)      Write out tracer 02: salt
          T  Hout(idUbms)      Write out bottom U-momentum stress.
          T  Hout(idVbms)      Write out bottom V-momentum stress.
          T  Hout(idUbrs)      Write out bottom U-current stress.
          T  Hout(idVbrs)      Write out bottom V-current stress.
          T  Hout(idUbws)      Write out wind-induced, bottom U-wave stress.
          T  Hout(idVbws)      Write out wind-induced, bottom V-wave stress.
          T  Hout(idUbcs)      Write out max wind + current, bottom U-wave stress.
          T  Hout(idVbcs)      Write out max wind + current, bottom V-wave stress.
          T  Hout(idUVwc)      Write out max wind + current, bottom UV-wave stress.
          T  Hout(idUbot)      Write out bed wave orbital U-velocity.
          T  Hout(idVbot)      Write out bed wave orbital V-velocity.
          T  Hout(idUbur)      Write out bottom U-momentum above bed.
          T  Hout(idVbvr)      Write out bottom V-momentum above bed.
          T  Hout(idWamp)      Write out wave height.
          T  Hout(idWlen)      Write out wavelength.
          T  Hout(idWdir)      Write out wave direction.
          T  Hout(idWptp)      Write out wave surface period.
          T  Hout(idWpbt)      Write out wave bottom period.
          T  Hout(idWorb)      Write out wave bottom orbital velocity.
          T  Hout(idSrad)      Write out shortwave radiation flux.
          T  Hout(idLrad)      Write out longwave radiation flux.
          T  Hout(idLhea)      Write out latent heat flux.
          T  Hout(idShea)      Write out sensible heat flux.
          T  Hout(idEmPf)      Write out E-P flux.
          T  Hout(idVvis)      Write out vertical viscosity: AKv.
          T  Hout(idTdif)      Write out vertical diffusion: AKt(itemp).
          T  Hout(idSdif)      Write out vertical diffusion: AKt(isalt).
          T  Hout(idMtke)      Write out turbulent kinetic energy.

 Output/Input Files:

             Output Restart File:  Z:/COAWST_OUTPUT/Yaeyama/Shiraho_reef2_eco/SR_veg_eco2_sg_rst_20231001_test_14_cont02.nc
             Output History File:  Z:/COAWST_OUTPUT/Yaeyama/Shiraho_reef2_eco/SR_veg_eco2_sg_his_20231001_test_14_cont02.nc
         Output Diagnostics File:  Z:/COAWST_OUTPUT/Yaeyama/Shiraho_reef2_eco/SR_veg_eco2_sg_dia_20231001_test_14_cont02.nc
        Physical parameters File:  
                 Input Grid File:  Z:/COAWST_DATA/Yaeyama/Shiraho_reef2/Grid/shiraho_roms_grd_JCOPET_v18.1.nc
    Input Nonlinear Initial File:  Z:/COAWST_OUTPUT/Yaeyama/Shiraho_reef2_eco/SR_veg_eco2_sg_rst_20231001_test_14.nc
           Input Forcing File 01:  Z:/COAWST_DATA/Yaeyama/Ishigaki_Air/Ishigaki_frc_JMAobs_2023_Pair.nc
           Input Forcing File 02:  Z:/COAWST_DATA/Yaeyama/Ishigaki_Air/Ishigaki_frc_JMAobs_2023_wind.nc
           Input Forcing File 03:  Z:/COAWST_DATA/Yaeyama/Ishigaki_Air/Ishigaki_frc_JMAobs_2023_Tair.nc
           Input Forcing File 04:  Z:/COAWST_DATA/Yaeyama/Ishigaki_Air/Ishigaki_frc_JMAobs_2023_Qair.nc
           Input Forcing File 05:  Z:/COAWST_DATA/Yaeyama/Ishigaki_Air/Ishigaki_frc_JMAobs_2023_rain.nc
           Input Forcing File 06:  Z:/COAWST_DATA/Yaeyama/Ishigaki_Air/Ishigaki_frc_JMAobs_2023_swrad.nc
           Input Forcing File 07:  Z:/COAWST_DATA/Yaeyama/Ishigaki_Air/Ishigaki_frc_JMAobs_2023_lwrad_down.nc
         Input Boundary File 01:  Z:/COAWST_DATA/Yaeyama/Shiraho_reef2/Bry/Shiraho_reef_bry_ROMS_Nz8_20230930.00.nc
         Biology Parameters File:  bio_reef_ecosys.in

 Tile partition information for Grid 01:  0062x0190x0008  tiling: 004x007

     tile  Node #  1 (pid=       0) is active.
 yt_debug: mod_reef_ecosys.F allocate_reef_ecosys() finished seagrass aloc
 yt_debug: mod_reef_ecosys.F allocate_reef_ecosys() finished sediment aloc
 Node #  2 (pid=       0) is active.
 yt_debug: mod_reef_ecosys.F allocate_reef_ecosys() finished seagrass aloc
 yt_debug: mod_reef_ecosys.F allocate_reef_ecosys() finished sediment aloc
 Node #  3 (pid=       0) is active.
 yt_debug: mod_reef_ecosys.F allocate_reef_ecosys() finished seagrass aloc
 yt_debug: mod_reef_ecosys.F allocate_reef_ecosys() finished sediment aloc
 Node #  4 (pid=       0) is active.
 yt_debug: mod_reef_ecosys.F allocate_reef_ecosys() finished seagrass aloc
 yt_debug: mod_reef_ecosys.F allocate_reef_ecosys() finished sediment aloc
 Node #  5 (pid=       0) is active.
 yt_debug: mod_reef_ecosys.F allocate_reef_ecosys() finished seagrass aloc
 yt_debug: mod_reef_ecosys.F allocate_reef_ecosys() finished sediment aloc
 Node #  6 (pid=       0) is active.
 yt_debug: mod_reef_ecosys.F allocate_reef_ecosys() finished seagrass aloc
 yt_debug: mod_reef_ecosys.F allocate_reef_ecosys() finished sediment aloc
 Node #  7 (pid=       0) is active.
 yt_debug: mod_reef_ecosys.F allocate_reef_ecosys() finished seagrass aloc
 yt_debug: mod_reef_ecosys.F allocate_reef_ecosys() finished sediment aloc
 Node #  8 (pid=       0) is active.
 yt_debug: mod_reef_ecosys.F allocate_reef_ecosys() finished seagrass aloc
 yt_debug: mod_reef_ecosys.F allocate_reef_ecosys() finished sediment aloc
 Node #  9 (pid=       0) is active.
 yt_debug: mod_reef_ecosys.F allocate_reef_ecosys() finished seagrass aloc
 yt_debug: mod_reef_ecosys.F allocate_reef_ecosys() finished sediment aloc
 Node # 10 (pid=       0) is active.
 yt_debug: mod_reef_ecosys.F allocate_reef_ecosys() finished seagrass aloc
 yt_debug: mod_reef_ecosys.F allocate_reef_ecosys() finished sediment aloc
 Node # 11 (pid=       0) is active.
 yt_debug: mod_reef_ecosys.F allocate_reef_ecosys() finished seagrass aloc
 yt_debug: mod_reef_ecosys.F allocate_reef_ecosys() finished sediment aloc
 Node # 12 (pid=       0) is active.
 yt_debug: mod_reef_ecosys.F allocate_reef_ecosys() finished seagrass aloc
 yt_debug: mod_reef_ecosys.F allocate_reef_ecosys() finished sediment aloc
 Node # 13 (pid=       0) is active.
 yt_debug: mod_reef_ecosys.F allocate_reef_ecosys() finished seagrass aloc
 yt_debug: mod_reef_ecosys.F allocate_reef_ecosys() finished sediment aloc
 Node # 14 (pid=       0) is active.
 yt_debug: mod_reef_ecosys.F allocate_reef_ecosys() finished seagrass aloc
 yt_debug: mod_reef_ecosys.F allocate_reef_ecosys() finished sediment aloc
 Node # 15 (pid=       0) is active.
 yt_debug: mod_reef_ecosys.F allocate_reef_ecosys() finished seagrass aloc
 yt_debug: mod_reef_ecosys.F allocate_reef_ecosys() finished sediment aloc
 Node # 16 (pid=       0) is active.
 yt_debug: mod_reef_ecosys.F allocate_reef_ecosys() finished seagrass aloc
 yt_debug: mod_reef_ecosys.F allocate_reef_ecosys() finished sediment aloc
 Node # 17 (pid=       0) is active.
 yt_debug: mod_reef_ecosys.F allocate_reef_ecosys() finished seagrass aloc
 yt_debug: mod_reef_ecosys.F allocate_reef_ecosys() finished sediment aloc
 Node # 18 (pid=       0) is active.
 yt_debug: mod_reef_ecosys.F allocate_reef_ecosys() finished seagrass aloc
 yt_debug: mod_reef_ecosys.F allocate_reef_ecosys() finished sediment aloc
 Node # 19 (pid=       0) is active.
 yt_debug: mod_reef_ecosys.F allocate_reef_ecosys() finished seagrass aloc
 yt_debug: mod_reef_ecosys.F allocate_reef_ecosys() finished sediment aloc
 Node # 20 (pid=       0) is active.
 yt_debug: mod_reef_ecosys.F allocate_reef_ecosys() finished seagrass aloc
 yt_debug: mod_reef_ecosys.F allocate_reef_ecosys() finished sediment aloc
 Node # 21 (pid=       0) is active.
 yt_debug: mod_reef_ecosys.F allocate_reef_ecosys() finished seagrass aloc
 yt_debug: mod_reef_ecosys.F allocate_reef_ecosys() finished sediment aloc
 Node # 22 (pid=       0) is active.
 yt_debug: mod_reef_ecosys.F allocate_reef_ecosys() finished seagrass aloc
 yt_debug: mod_reef_ecosys.F allocate_reef_ecosys() finished sediment aloc
 Node # 23 (pid=       0) is active.
 yt_debug: mod_reef_ecosys.F allocate_reef_ecosys() finished seagrass aloc
 yt_debug: mod_reef_ecosys.F allocate_reef_ecosys() finished sediment aloc
 Node # 24 (pid=       0) is active.
 yt_debug: mod_reef_ecosys.F allocate_reef_ecosys() finished seagrass aloc
 yt_debug: mod_reef_ecosys.F allocate_reef_ecosys() finished sediment aloc
 Node # 25 (pid=       0) is active.
 yt_debug: mod_reef_ecosys.F allocate_reef_ecosys() finished seagrass aloc
 yt_debug: mod_reef_ecosys.F allocate_reef_ecosys() finished sediment aloc
 Node # 26 (pid=       0) is active.
 yt_debug: mod_reef_ecosys.F allocate_reef_ecosys() finished seagrass aloc
 yt_debug: mod_reef_ecosys.F allocate_reef_ecosys() finished sediment aloc
 Node # 27 (pid=       0) is active.
 yt_debug: mod_reef_ecosys.F allocate_reef_ecosys() finished seagrass aloc
 yt_debug: mod_reef_ecosys.F allocate_reef_ecosys() finished sediment aloc
    Istr     Iend     Jstr     Jend     Npts

 Number of tracers:           78
        0        1       15        1       25     3000
        1       16       31        1       25     3200
        2       32       47        1       25     3200
        3       48       62        1       25     3000
        4        1       15       26       53     3360
        5       16       31       26       53     3584
        6       32       47       26       53     3584
        7       48       62       26       53     3360
        8        1       15       54       81     3360
        9       16       31       54       81     3584
       10       32       47       54       81     3584
       11       48       62       54       81     3360
       12        1       15       82      109     3360
       13       16       31       82      109     3584
       14       32       47       82      109     3584
       15       48       62       82      109     3360
       16        1       15      110      137     3360
       17       16       31      110      137     3584
       18       32       47      110      137     3584
       19       48       62      110      137     3360
       20        1       15      138      165     3360
       21       16       31      138      165     3584
       22       32       47      138      165     3584
       23       48       62      138      165     3360
       24        1       15      166      190     3000
       25       16       31      166      190     3200
       26       32       47      166      190     3200
       27       48       62      166      190     3000

 Tile minimum and maximum fractional coordinates for Grid 01:
   (interior points only)

     tile     Xmin     Xmax     Ymin     Ymax     grid

        0     0.50    15.50     0.50    25.50  RHO-points
        1    15.50    31.50     0.50    25.50  RHO-points
        2    31.50    47.50     0.50    25.50  RHO-points
        3    47.50    62.50     0.50    25.50  RHO-points
        4     0.50    15.50    25.50    53.50  RHO-points
        5    15.50    31.50    25.50    53.50  RHO-points
        6    31.50    47.50    25.50    53.50  RHO-points
        7    47.50    62.50    25.50    53.50  RHO-points
        8     0.50    15.50    53.50    81.50  RHO-points
        9    15.50    31.50    53.50    81.50  RHO-points
       10    31.50    47.50    53.50    81.50  RHO-points
       11    47.50    62.50    53.50    81.50  RHO-points
       12     0.50    15.50    81.50   109.50  RHO-points
       13    15.50    31.50    81.50   109.50  RHO-points
       14    31.50    47.50    81.50   109.50  RHO-points
       15    47.50    62.50    81.50   109.50  RHO-points
       16     0.50    15.50   109.50   137.50  RHO-points
       17    15.50    31.50   109.50   137.50  RHO-points
       18    31.50    47.50   109.50   137.50  RHO-points
       19    47.50    62.50   109.50   137.50  RHO-points
       20     0.50    15.50   137.50   165.50  RHO-points
       21    15.50    31.50   137.50   165.50  RHO-points
       22    31.50    47.50   137.50   165.50  RHO-points
       23    47.50    62.50   137.50   165.50  RHO-points
       24     0.50    15.50   165.50   190.50  RHO-points
       25    15.50    31.50   165.50   190.50  RHO-points
       26    31.50    47.50   165.50   190.50  RHO-points
       27    47.50    62.50   165.50   190.50  RHO-points

        0     1.00    15.50     0.50    25.50    U-points
        1    15.50    31.50     0.50    25.50    U-points
        2    31.50    47.50     0.50    25.50    U-points
        3    47.50    62.00     0.50    25.50    U-points
        4     1.00    15.50    25.50    53.50    U-points
        5    15.50    31.50    25.50    53.50    U-points
        6    31.50    47.50    25.50    53.50    U-points
        7    47.50    62.00    25.50    53.50    U-points
        8     1.00    15.50    53.50    81.50    U-points
        9    15.50    31.50    53.50    81.50    U-points
       10    31.50    47.50    53.50    81.50    U-points
       11    47.50    62.00    53.50    81.50    U-points
       12     1.00    15.50    81.50   109.50    U-points
       13    15.50    31.50    81.50   109.50    U-points
       14    31.50    47.50    81.50   109.50    U-points
       15    47.50    62.00    81.50   109.50    U-points
       16     1.00    15.50   109.50   137.50    U-points
       17    15.50    31.50   109.50   137.50    U-points
       18    31.50    47.50   109.50   137.50    U-points
       19    47.50    62.00   109.50   137.50    U-points
       20     1.00    15.50   137.50   165.50    U-points
       21    15.50    31.50   137.50   165.50    U-points
       22    31.50    47.50   137.50   165.50    U-points
       23    47.50    62.00   137.50   165.50    U-points
       24     1.00    15.50   165.50   190.50    U-points
       25    15.50    31.50   165.50   190.50    U-points
       26    31.50    47.50   165.50   190.50    U-points
       27    47.50    62.00   165.50   190.50    U-points

        0     0.50    15.50     1.00    25.50    V-points
        1    15.50    31.50     1.00    25.50    V-points
        2    31.50    47.50     1.00    25.50    V-points
        3    47.50    62.50     1.00    25.50    V-points
        4     0.50    15.50    25.50    53.50    V-points
        5    15.50    31.50    25.50    53.50    V-points
        6    31.50    47.50    25.50    53.50    V-points
        7    47.50    62.50    25.50    53.50    V-points
        8     0.50    15.50    53.50    81.50    V-points
        9    15.50    31.50    53.50    81.50    V-points
       10    31.50    47.50    53.50    81.50    V-points
       11    47.50    62.50    53.50    81.50    V-points
       12     0.50    15.50    81.50   109.50    V-points
       13    15.50    31.50    81.50   109.50    V-points
       14    31.50    47.50    81.50   109.50    V-points
       15    47.50    62.50    81.50   109.50    V-points
       16     0.50    15.50   109.50   137.50    V-points
       17    15.50    31.50   109.50   137.50    V-points
       18    31.50    47.50   109.50   137.50    V-points
       19    47.50    62.50   109.50   137.50    V-points
       20     0.50    15.50   137.50   165.50    V-points
       21    15.50    31.50   137.50   165.50    V-points
       22    31.50    47.50   137.50   165.50    V-points
       23    47.50    62.50   137.50   165.50    V-points
       24     0.50    15.50   165.50   190.00    V-points
       25    15.50    31.50   165.50   190.00    V-points
       26    31.50    47.50   165.50   190.00    V-points
       27    47.50    62.50   165.50   190.00    V-points

 Maximum halo size in XI and ETA directions:

               HaloSizeI(1) =      56
               HaloSizeJ(1) =      80
                TileSide(1) =      34
                TileSize(1) =     748



 Reef Ecosys Model Parameters, Grid: 01
 =================================

         20  CrlIter         Number of iterations for nonlinear convergence.
         10  SedIter         Number of iterations for nonlinear convergence.
 1.8200E+00  PARfrac         Fraction of shortwave radiation that is
                               photosynthetically active (nondimensional).
 4.0000E+02  pCO2air         CO2 partial pressure in air (ppm by volume).
 2.0000E+02  DO_0            Dissolved oxygen (umol/L).
 2.2320E+03  TA_0            Total alkalinity  (umol/kg).
 1.9150E+03  DIC_0           Total dissolved inorganic carbon (umol/kg).
 2.0000E-01  NO3_0           NO3 (umol/L).
 2.6000E-01  NH4_0           NH4 (umol/L).
 4.0000E-02  PO4_0           PO4 (umol/L).
 1.0000E-01  DOC_0: 01       Dissolved organic carbon (umolC/L).
 5.0000E+01  DOC_0: 02       Dissolved organic carbon (umolC/L).
 0.0000E+00  POC_0: 01       Particulate organic carbon (umolC/L).
 0.0000E+00  POC_0: 02       Particulate organic carbon (umolC/L).
 0.0000E+00  POC_0: 03       Particulate organic carbon (umolC/L).
 1.5000E-02  DON_0: 01       DON (umolN/L).
 5.0000E+00  DON_0: 02       DON (umolN/L).
 0.0000E+00  PON_0: 01       PON (umolN/L).
 0.0000E+00  PON_0: 02       PON (umolN/L).
 0.0000E+00  PON_0: 03       PON (umolN/L).
 1.0000E-03  DOP_0: 01       DOP (umolP/L).
 6.0000E-01  DOP_0: 02       DOP (umolP/L).
 0.0000E+00  POP_0: 01       POP (umolP/L).
 0.0000E+00  POP_0: 02       POP (umolP/L).
 0.0000E+00  POP_0: 03       POP (umolP/L).
 3.0000E-01  PhyC_0: 01      Phytoplankton (umolC/L).
 1.0000E-01  PhyC_0: 02      Phytoplankton (umolC/L).
 1.0000E-02  PhyC_0: 03      Phytoplankton (umolC/L).
 1.0000E-02  PhyC_0: 04      Phytoplankton (umolC/L).
 5.0000E-02  ZooC_0: 01      Zooplankton (umolC/L).
 0.0000E+00  PIC_0: 01       PIC (umolC/L).
 0.0000E+00  PIC_0: 02       PIC (umolC/L).
 1.0000E+02  MnO2_sed        MnO2 in sediments [nmol/g(DW)].
 1.0000E+03  FeOOH_sed       FeOOH in sediments [nmol/g(DW)].
 1.0000E+03  FeS2_sed        FeS2 in sediments [nmol/g(DW)].
 2.0000E+06  OrgC_sed        OrgC in sediments [nmol/g(DW)].
 8.0000E-01  rCaCO3_sed      Fraction of CaCO3 in sediments [g(CaCO3)/g(DW)].
 0.0000E+00  nl_tnu2(05)     NLM Horizontal, harmonic mixing coefficient
                               (m2/s) for tracer 05: DO
 0.0000E+00  nl_tnu2(06)     NLM Horizontal, harmonic mixing coefficient
                               (m2/s) for tracer 06: TA
 0.0000E+00  nl_tnu2(07)     NLM Horizontal, harmonic mixing coefficient
                               (m2/s) for tracer 07: DIC_01
 0.0000E+00  nl_tnu2(08)     NLM Horizontal, harmonic mixing coefficient
                               (m2/s) for tracer 08: DIC_02
 0.0000E+00  nl_tnu2(09)     NLM Horizontal, harmonic mixing coefficient
                               (m2/s) for tracer 09: NO3_01
 0.0000E+00  nl_tnu2(10)     NLM Horizontal, harmonic mixing coefficient
                               (m2/s) for tracer 10: NO3_02
 0.0000E+00  nl_tnu2(11)     NLM Horizontal, harmonic mixing coefficient
                               (m2/s) for tracer 11: NH4_01
 0.0000E+00  nl_tnu2(12)     NLM Horizontal, harmonic mixing coefficient
                               (m2/s) for tracer 12: NH4_02
 0.0000E+00  nl_tnu2(13)     NLM Horizontal, harmonic mixing coefficient
                               (m2/s) for tracer 13: PO4_01
 0.0000E+00  nl_tnu2(14)     NLM Horizontal, harmonic mixing coefficient
                               (m2/s) for tracer 14: PO4_02
 0.0000E+00  nl_tnu2(15)     NLM Horizontal, harmonic mixing coefficient
                               (m2/s) for tracer 15: DOC01_01
 0.0000E+00  nl_tnu2(16)     NLM Horizontal, harmonic mixing coefficient
                               (m2/s) for tracer 16: DOC01_02
 0.0000E+00  nl_tnu2(17)     NLM Horizontal, harmonic mixing coefficient
                               (m2/s) for tracer 17: DOC02_01
 0.0000E+00  nl_tnu2(18)     NLM Horizontal, harmonic mixing coefficient
                               (m2/s) for tracer 18: DOC02_02
 0.0000E+00  nl_tnu2(19)     NLM Horizontal, harmonic mixing coefficient
                               (m2/s) for tracer 19: DON01_01
 0.0000E+00  nl_tnu2(20)     NLM Horizontal, harmonic mixing coefficient
                               (m2/s) for tracer 20: DON01_02
 0.0000E+00  nl_tnu2(21)     NLM Horizontal, harmonic mixing coefficient
                               (m2/s) for tracer 21: DON02_01
 0.0000E+00  nl_tnu2(22)     NLM Horizontal, harmonic mixing coefficient
                               (m2/s) for tracer 22: DON02_02
 0.0000E+00  nl_tnu2(23)     NLM Horizontal, harmonic mixing coefficient
                               (m2/s) for tracer 23: DOP01_01
 0.0000E+00  nl_tnu2(24)     NLM Horizontal, harmonic mixing coefficient
                               (m2/s) for tracer 24: DOP01_02
 0.0000E+00  nl_tnu2(25)     NLM Horizontal, harmonic mixing coefficient
                               (m2/s) for tracer 25: DOP02_01
 0.0000E+00  nl_tnu2(26)     NLM Horizontal, harmonic mixing coefficient
                               (m2/s) for tracer 26: DOP02_02
 0.0000E+00  nl_tnu2(27)     NLM Horizontal, harmonic mixing coefficient
                               (m2/s) for tracer 27: POC01_01
 0.0000E+00  nl_tnu2(28)     NLM Horizontal, harmonic mixing coefficient
                               (m2/s) for tracer 28: POC01_02
 0.0000E+00  nl_tnu2(29)     NLM Horizontal, harmonic mixing coefficient
                               (m2/s) for tracer 29: POC02_01
 0.0000E+00  nl_tnu2(30)     NLM Horizontal, harmonic mixing coefficient
                               (m2/s) for tracer 30: POC02_02
 0.0000E+00  nl_tnu2(31)     NLM Horizontal, harmonic mixing coefficient
                               (m2/s) for tracer 31: POC03_01
 0.0000E+00  nl_tnu2(32)     NLM Horizontal, harmonic mixing coefficient
                               (m2/s) for tracer 32: POC03_02
 0.0000E+00  nl_tnu2(33)     NLM Horizontal, harmonic mixing coefficient
                               (m2/s) for tracer 33: PON01_01
 0.0000E+00  nl_tnu2(34)     NLM Horizontal, harmonic mixing coefficient
                               (m2/s) for tracer 34: PON01_02
 0.0000E+00  nl_tnu2(35)     NLM Horizontal, harmonic mixing coefficient
                               (m2/s) for tracer 35: PON02_01
 0.0000E+00  nl_tnu2(36)     NLM Horizontal, harmonic mixing coefficient
                               (m2/s) for tracer 36: PON02_02
 0.0000E+00  nl_tnu2(37)     NLM Horizontal, harmonic mixing coefficient
                               (m2/s) for tracer 37: PON03_01
 0.0000E+00  nl_tnu2(38)     NLM Horizontal, harmonic mixing coefficient
                               (m2/s) for tracer 38: PON03_02
 0.0000E+00  nl_tnu2(39)     NLM Horizontal, harmonic mixing coefficient
                               (m2/s) for tracer 39: POP01_01
 0.0000E+00  nl_tnu2(40)     NLM Horizontal, harmonic mixing coefficient
                               (m2/s) for tracer 40: POP01_02
 0.0000E+00  nl_tnu2(41)     NLM Horizontal, harmonic mixing coefficient
                               (m2/s) for tracer 41: POP02_01
 0.0000E+00  nl_tnu2(42)     NLM Horizontal, harmonic mixing coefficient
                               (m2/s) for tracer 42: POP02_02
 0.0000E+00  nl_tnu2(43)     NLM Horizontal, harmonic mixing coefficient
                               (m2/s) for tracer 43: POP03_01
 0.0000E+00  nl_tnu2(44)     NLM Horizontal, harmonic mixing coefficient
                               (m2/s) for tracer 44: POP03_02
 0.0000E+00  nl_tnu2(45)     NLM Horizontal, harmonic mixing coefficient
                               (m2/s) for tracer 45: PhyC01_01
 0.0000E+00  nl_tnu2(46)     NLM Horizontal, harmonic mixing coefficient
                               (m2/s) for tracer 46: PhyC01_02
 0.0000E+00  nl_tnu2(47)     NLM Horizontal, harmonic mixing coefficient
                               (m2/s) for tracer 47: PhyC02_01
 0.0000E+00  nl_tnu2(48)     NLM Horizontal, harmonic mixing coefficient
                               (m2/s) for tracer 48: PhyC02_02
 0.0000E+00  nl_tnu2(49)     NLM Horizontal, harmonic mixing coefficient
                               (m2/s) for tracer 49: PhyC03_01
 0.0000E+00  nl_tnu2(50)     NLM Horizontal, harmonic mixing coefficient
                               (m2/s) for tracer 50: PhyC03_02
 0.0000E+00  nl_tnu2(51)     NLM Horizontal, harmonic mixing coefficient
                               (m2/s) for tracer 51: PhyC04_01
 0.0000E+00  nl_tnu2(52)     NLM Horizontal, harmonic mixing coefficient
                               (m2/s) for tracer 52: PhyC04_02
 0.0000E+00  nl_tnu2(53)     NLM Horizontal, harmonic mixing coefficient
                               (m2/s) for tracer 53: PhyN01_01
 0.0000E+00  nl_tnu2(54)     NLM Horizontal, harmonic mixing coefficient
                               (m2/s) for tracer 54: PhyN01_02
 0.0000E+00  nl_tnu2(55)     NLM Horizontal, harmonic mixing coefficient
                               (m2/s) for tracer 55: PhyN02_01
 0.0000E+00  nl_tnu2(56)     NLM Horizontal, harmonic mixing coefficient
                               (m2/s) for tracer 56: PhyN02_02
 0.0000E+00  nl_tnu2(57)     NLM Horizontal, harmonic mixing coefficient
                               (m2/s) for tracer 57: PhyN03_01
 0.0000E+00  nl_tnu2(58)     NLM Horizontal, harmonic mixing coefficient
                               (m2/s) for tracer 58: PhyN03_02
 0.0000E+00  nl_tnu2(59)     NLM Horizontal, harmonic mixing coefficient
                               (m2/s) for tracer 59: PhyN04_01
 0.0000E+00  nl_tnu2(60)     NLM Horizontal, harmonic mixing coefficient
                               (m2/s) for tracer 60: PhyN04_02
 0.0000E+00  nl_tnu2(61)     NLM Horizontal, harmonic mixing coefficient
                               (m2/s) for tracer 61: PhyP01_01
 0.0000E+00  nl_tnu2(62)     NLM Horizontal, harmonic mixing coefficient
                               (m2/s) for tracer 62: PhyP01_02
 0.0000E+00  nl_tnu2(63)     NLM Horizontal, harmonic mixing coefficient
                               (m2/s) for tracer 63: PhyP02_01
 0.0000E+00  nl_tnu2(64)     NLM Horizontal, harmonic mixing coefficient
                               (m2/s) for tracer 64: PhyP02_02
 0.0000E+00  nl_tnu2(65)     NLM Horizontal, harmonic mixing coefficient
                               (m2/s) for tracer 65: PhyP03_01
 0.0000E+00  nl_tnu2(66)     NLM Horizontal, harmonic mixing coefficient
                               (m2/s) for tracer 66: PhyP03_02
 0.0000E+00  nl_tnu2(67)     NLM Horizontal, harmonic mixing coefficient
                               (m2/s) for tracer 67: PhyP04_01
 0.0000E+00  nl_tnu2(68)     NLM Horizontal, harmonic mixing coefficient
                               (m2/s) for tracer 68: PhyP04_02
 0.0000E+00  nl_tnu2(69)     NLM Horizontal, harmonic mixing coefficient
                               (m2/s) for tracer 69: ZooC01_01
 0.0000E+00  nl_tnu2(70)     NLM Horizontal, harmonic mixing coefficient
                               (m2/s) for tracer 70: ZooC01_02
 0.0000E+00  nl_tnu2(71)     NLM Horizontal, harmonic mixing coefficient
                               (m2/s) for tracer 71: ZooN01_01
 0.0000E+00  nl_tnu2(72)     NLM Horizontal, harmonic mixing coefficient
                               (m2/s) for tracer 72: ZooN01_02
 0.0000E+00  nl_tnu2(73)     NLM Horizontal, harmonic mixing coefficient
                               (m2/s) for tracer 73: ZooP01_01
 0.0000E+00  nl_tnu2(74)     NLM Horizontal, harmonic mixing coefficient
                               (m2/s) for tracer 74: ZooP01_02
 0.0000E+00  nl_tnu2(75)     NLM Horizontal, harmonic mixing coefficient
                               (m2/s) for tracer 75: PIC01_01
 0.0000E+00  nl_tnu2(76)     NLM Horizontal, harmonic mixing coefficient
                               (m2/s) for tracer 76: PIC01_02
 0.0000E+00  nl_tnu2(77)     NLM Horizontal, harmonic mixing coefficient
                               (m2/s) for tracer 77: PIC02_01
 0.0000E+00  nl_tnu2(78)     NLM Horizontal, harmonic mixing coefficient
                               (m2/s) for tracer 78: PIC02_02
 1.0000E-06  Akt_bak(05)     Background vertical mixing coefficient (m2/s)
                               for tracer 05: DO
 1.0000E-06  Akt_bak(06)     Background vertical mixing coefficient (m2/s)
                               for tracer 06: TA
 1.0000E-06  Akt_bak(07)     Background vertical mixing coefficient (m2/s)
                               for tracer 07: DIC_01
 1.0000E-06  Akt_bak(08)     Background vertical mixing coefficient (m2/s)
                               for tracer 08: DIC_02
 1.0000E-06  Akt_bak(09)     Background vertical mixing coefficient (m2/s)
                               for tracer 09: NO3_01
 1.0000E-06  Akt_bak(10)     Background vertical mixing coefficient (m2/s)
                               for tracer 10: NO3_02
 1.0000E-06  Akt_bak(11)     Background vertical mixing coefficient (m2/s)
                               for tracer 11: NH4_01
 1.0000E-06  Akt_bak(12)     Background vertical mixing coefficient (m2/s)
                               for tracer 12: NH4_02
 1.0000E-06  Akt_bak(13)     Background vertical mixing coefficient (m2/s)
                               for tracer 13: PO4_01
 1.0000E-06  Akt_bak(14)     Background vertical mixing coefficient (m2/s)
                               for tracer 14: PO4_02
 1.0000E-06  Akt_bak(15)     Background vertical mixing coefficient (m2/s)
                               for tracer 15: DOC01_01
 1.0000E-06  Akt_bak(16)     Background vertical mixing coefficient (m2/s)
                               for tracer 16: DOC01_02
 1.0000E-06  Akt_bak(17)     Background vertical mixing coefficient (m2/s)
                               for tracer 17: DOC02_01
 1.0000E-06  Akt_bak(18)     Background vertical mixing coefficient (m2/s)
                               for tracer 18: DOC02_02
 1.0000E-06  Akt_bak(19)     Background vertical mixing coefficient (m2/s)
                               for tracer 19: DON01_01
 1.0000E-06  Akt_bak(20)     Background vertical mixing coefficient (m2/s)
                               for tracer 20: DON01_02
 1.0000E-06  Akt_bak(21)     Background vertical mixing coefficient (m2/s)
                               for tracer 21: DON02_01
 1.0000E-06  Akt_bak(22)     Background vertical mixing coefficient (m2/s)
                               for tracer 22: DON02_02
 1.0000E-06  Akt_bak(23)     Background vertical mixing coefficient (m2/s)
                               for tracer 23: DOP01_01
 1.0000E-06  Akt_bak(24)     Background vertical mixing coefficient (m2/s)
                               for tracer 24: DOP01_02
 1.0000E-06  Akt_bak(25)     Background vertical mixing coefficient (m2/s)
                               for tracer 25: DOP02_01
 1.0000E-06  Akt_bak(26)     Background vertical mixing coefficient (m2/s)
                               for tracer 26: DOP02_02
 1.0000E-06  Akt_bak(27)     Background vertical mixing coefficient (m2/s)
                               for tracer 27: POC01_01
 1.0000E-06  Akt_bak(28)     Background vertical mixing coefficient (m2/s)
                               for tracer 28: POC01_02
 1.0000E-06  Akt_bak(29)     Background vertical mixing coefficient (m2/s)
                               for tracer 29: POC02_01
 1.0000E-06  Akt_bak(30)     Background vertical mixing coefficient (m2/s)
                               for tracer 30: POC02_02
 1.0000E-06  Akt_bak(31)     Background vertical mixing coefficient (m2/s)
                               for tracer 31: POC03_01
 1.0000E-06  Akt_bak(32)     Background vertical mixing coefficient (m2/s)
                               for tracer 32: POC03_02
 1.0000E-06  Akt_bak(33)     Background vertical mixing coefficient (m2/s)
                               for tracer 33: PON01_01
 1.0000E-06  Akt_bak(34)     Background vertical mixing coefficient (m2/s)
                               for tracer 34: PON01_02
 1.0000E-06  Akt_bak(35)     Background vertical mixing coefficient (m2/s)
                               for tracer 35: PON02_01
 1.0000E-06  Akt_bak(36)     Background vertical mixing coefficient (m2/s)
                               for tracer 36: PON02_02
 1.0000E-06  Akt_bak(37)     Background vertical mixing coefficient (m2/s)
                               for tracer 37: PON03_01
 1.0000E-06  Akt_bak(38)     Background vertical mixing coefficient (m2/s)
                               for tracer 38: PON03_02
 1.0000E-06  Akt_bak(39)     Background vertical mixing coefficient (m2/s)
                               for tracer 39: POP01_01
 1.0000E-06  Akt_bak(40)     Background vertical mixing coefficient (m2/s)
                               for tracer 40: POP01_02
 1.0000E-06  Akt_bak(41)     Background vertical mixing coefficient (m2/s)
                               for tracer 41: POP02_01
 1.0000E-06  Akt_bak(42)     Background vertical mixing coefficient (m2/s)
                               for tracer 42: POP02_02
 1.0000E-06  Akt_bak(43)     Background vertical mixing coefficient (m2/s)
                               for tracer 43: POP03_01
 1.0000E-06  Akt_bak(44)     Background vertical mixing coefficient (m2/s)
                               for tracer 44: POP03_02
 1.0000E-06  Akt_bak(45)     Background vertical mixing coefficient (m2/s)
                               for tracer 45: PhyC01_01
 1.0000E-06  Akt_bak(46)     Background vertical mixing coefficient (m2/s)
                               for tracer 46: PhyC01_02
 1.0000E-06  Akt_bak(47)     Background vertical mixing coefficient (m2/s)
                               for tracer 47: PhyC02_01
 1.0000E-06  Akt_bak(48)     Background vertical mixing coefficient (m2/s)
                               for tracer 48: PhyC02_02
 1.0000E-06  Akt_bak(49)     Background vertical mixing coefficient (m2/s)
                               for tracer 49: PhyC03_01
 1.0000E-06  Akt_bak(50)     Background vertical mixing coefficient (m2/s)
                               for tracer 50: PhyC03_02
 1.0000E-06  Akt_bak(51)     Background vertical mixing coefficient (m2/s)
                               for tracer 51: PhyC04_01
 1.0000E-06  Akt_bak(52)     Background vertical mixing coefficient (m2/s)
                               for tracer 52: PhyC04_02
 1.0000E-06  Akt_bak(53)     Background vertical mixing coefficient (m2/s)
                               for tracer 53: PhyN01_01
 1.0000E-06  Akt_bak(54)     Background vertical mixing coefficient (m2/s)
                               for tracer 54: PhyN01_02
 1.0000E-06  Akt_bak(55)     Background vertical mixing coefficient (m2/s)
                               for tracer 55: PhyN02_01
 1.0000E-06  Akt_bak(56)     Background vertical mixing coefficient (m2/s)
                               for tracer 56: PhyN02_02
 1.0000E-06  Akt_bak(57)     Background vertical mixing coefficient (m2/s)
                               for tracer 57: PhyN03_01
 1.0000E-06  Akt_bak(58)     Background vertical mixing coefficient (m2/s)
                               for tracer 58: PhyN03_02
 1.0000E-06  Akt_bak(59)     Background vertical mixing coefficient (m2/s)
                               for tracer 59: PhyN04_01
 1.0000E-06  Akt_bak(60)     Background vertical mixing coefficient (m2/s)
                               for tracer 60: PhyN04_02
 1.0000E-06  Akt_bak(61)     Background vertical mixing coefficient (m2/s)
                               for tracer 61: PhyP01_01
 1.0000E-06  Akt_bak(62)     Background vertical mixing coefficient (m2/s)
                               for tracer 62: PhyP01_02
 1.0000E-06  Akt_bak(63)     Background vertical mixing coefficient (m2/s)
                               for tracer 63: PhyP02_01
 1.0000E-06  Akt_bak(64)     Background vertical mixing coefficient (m2/s)
                               for tracer 64: PhyP02_02
 1.0000E-06  Akt_bak(65)     Background vertical mixing coefficient (m2/s)
                               for tracer 65: PhyP03_01
 1.0000E-06  Akt_bak(66)     Background vertical mixing coefficient (m2/s)
                               for tracer 66: PhyP03_02
 1.0000E-06  Akt_bak(67)     Background vertical mixing coefficient (m2/s)
                               for tracer 67: PhyP04_01
 1.0000E-06  Akt_bak(68)     Background vertical mixing coefficient (m2/s)
                               for tracer 68: PhyP04_02
 1.0000E-06  Akt_bak(69)     Background vertical mixing coefficient (m2/s)
                               for tracer 69: ZooC01_01
 1.0000E-06  Akt_bak(70)     Background vertical mixing coefficient (m2/s)
                               for tracer 70: ZooC01_02
 1.0000E-06  Akt_bak(71)     Background vertical mixing coefficient (m2/s)
                               for tracer 71: ZooN01_01
 1.0000E-06  Akt_bak(72)     Background vertical mixing coefficient (m2/s)
                               for tracer 72: ZooN01_02
 1.0000E-06  Akt_bak(73)     Background vertical mixing coefficient (m2/s)
                               for tracer 73: ZooP01_01
 1.0000E-06  Akt_bak(74)     Background vertical mixing coefficient (m2/s)
                               for tracer 74: ZooP01_02
 1.0000E-06  Akt_bak(75)     Background vertical mixing coefficient (m2/s)
                               for tracer 75: PIC01_01
 1.0000E-06  Akt_bak(76)     Background vertical mixing coefficient (m2/s)
                               for tracer 76: PIC01_02
 1.0000E-06  Akt_bak(77)     Background vertical mixing coefficient (m2/s)
                               for tracer 77: PIC02_01
 1.0000E-06  Akt_bak(78)     Background vertical mixing coefficient (m2/s)
                               for tracer 78: PIC02_02
 1.0000E+00  Tnudg(05)       Nudging/relaxation time scale (days)
                               for tracer 05: DO
 1.0000E+00  Tnudg(06)       Nudging/relaxation time scale (days)
                               for tracer 06: TA
 1.0000E+00  Tnudg(07)       Nudging/relaxation time scale (days)
                               for tracer 07: DIC_01
 1.0000E+00  Tnudg(08)       Nudging/relaxation time scale (days)
                               for tracer 08: DIC_02
 1.0000E+00  Tnudg(09)       Nudging/relaxation time scale (days)
                               for tracer 09: NO3_01
 1.0000E+00  Tnudg(10)       Nudging/relaxation time scale (days)
                               for tracer 10: NO3_02
 1.0000E+00  Tnudg(11)       Nudging/relaxation time scale (days)
                               for tracer 11: NH4_01
 1.0000E+00  Tnudg(12)       Nudging/relaxation time scale (days)
                               for tracer 12: NH4_02
 1.0000E+00  Tnudg(13)       Nudging/relaxation time scale (days)
                               for tracer 13: PO4_01
 1.0000E+00  Tnudg(14)       Nudging/relaxation time scale (days)
                               for tracer 14: PO4_02
 1.0000E+00  Tnudg(15)       Nudging/relaxation time scale (days)
                               for tracer 15: DOC01_01
 1.0000E+00  Tnudg(16)       Nudging/relaxation time scale (days)
                               for tracer 16: DOC01_02
 1.0000E+00  Tnudg(17)       Nudging/relaxation time scale (days)
                               for tracer 17: DOC02_01
 1.0000E+00  Tnudg(18)       Nudging/relaxation time scale (days)
                               for tracer 18: DOC02_02
 1.0000E+00  Tnudg(19)       Nudging/relaxation time scale (days)
                               for tracer 19: DON01_01
 1.0000E+00  Tnudg(20)       Nudging/relaxation time scale (days)
                               for tracer 20: DON01_02
 1.0000E+00  Tnudg(21)       Nudging/relaxation time scale (days)
                               for tracer 21: DON02_01
 1.0000E+00  Tnudg(22)       Nudging/relaxation time scale (days)
                               for tracer 22: DON02_02
 1.0000E+00  Tnudg(23)       Nudging/relaxation time scale (days)
                               for tracer 23: DOP01_01
 1.0000E+00  Tnudg(24)       Nudging/relaxation time scale (days)
                               for tracer 24: DOP01_02
 1.0000E+00  Tnudg(25)       Nudging/relaxation time scale (days)
                               for tracer 25: DOP02_01
 1.0000E+00  Tnudg(26)       Nudging/relaxation time scale (days)
                               for tracer 26: DOP02_02
 1.0000E+00  Tnudg(27)       Nudging/relaxation time scale (days)
                               for tracer 27: POC01_01
 1.0000E+00  Tnudg(28)       Nudging/relaxation time scale (days)
                               for tracer 28: POC01_02
 1.0000E+00  Tnudg(29)       Nudging/relaxation time scale (days)
                               for tracer 29: POC02_01
 1.0000E+00  Tnudg(30)       Nudging/relaxation time scale (days)
                               for tracer 30: POC02_02
 1.0000E+00  Tnudg(31)       Nudging/relaxation time scale (days)
                               for tracer 31: POC03_01
 1.0000E+00  Tnudg(32)       Nudging/relaxation time scale (days)
                               for tracer 32: POC03_02
 1.0000E+00  Tnudg(33)       Nudging/relaxation time scale (days)
                               for tracer 33: PON01_01
 1.0000E+00  Tnudg(34)       Nudging/relaxation time scale (days)
                               for tracer 34: PON01_02
 1.0000E+00  Tnudg(35)       Nudging/relaxation time scale (days)
                               for tracer 35: PON02_01
 1.0000E+00  Tnudg(36)       Nudging/relaxation time scale (days)
                               for tracer 36: PON02_02
 1.0000E+00  Tnudg(37)       Nudging/relaxation time scale (days)
                               for tracer 37: PON03_01
 1.0000E+00  Tnudg(38)       Nudging/relaxation time scale (days)
                               for tracer 38: PON03_02
 1.0000E+00  Tnudg(39)       Nudging/relaxation time scale (days)
                               for tracer 39: POP01_01
 1.0000E+00  Tnudg(40)       Nudging/relaxation time scale (days)
                               for tracer 40: POP01_02
 1.0000E+00  Tnudg(41)       Nudging/relaxation time scale (days)
                               for tracer 41: POP02_01
 1.0000E+00  Tnudg(42)       Nudging/relaxation time scale (days)
                               for tracer 42: POP02_02
 1.0000E+00  Tnudg(43)       Nudging/relaxation time scale (days)
                               for tracer 43: POP03_01
 1.0000E+00  Tnudg(44)       Nudging/relaxation time scale (days)
                               for tracer 44: POP03_02
 1.0000E+00  Tnudg(45)       Nudging/relaxation time scale (days)
                               for tracer 45: PhyC01_01
 1.0000E+00  Tnudg(46)       Nudging/relaxation time scale (days)
                               for tracer 46: PhyC01_02
 1.0000E+00  Tnudg(47)       Nudging/relaxation time scale (days)
                               for tracer 47: PhyC02_01
 1.0000E+00  Tnudg(48)       Nudging/relaxation time scale (days)
                               for tracer 48: PhyC02_02
 1.0000E+00  Tnudg(49)       Nudging/relaxation time scale (days)
                               for tracer 49: PhyC03_01
 1.0000E+00  Tnudg(50)       Nudging/relaxation time scale (days)
                               for tracer 50: PhyC03_02
 1.0000E+00  Tnudg(51)       Nudging/relaxation time scale (days)
                               for tracer 51: PhyC04_01
 1.0000E+00  Tnudg(52)       Nudging/relaxation time scale (days)
                               for tracer 52: PhyC04_02
 1.0000E+00  Tnudg(53)       Nudging/relaxation time scale (days)
                               for tracer 53: PhyN01_01
 1.0000E+00  Tnudg(54)       Nudging/relaxation time scale (days)
                               for tracer 54: PhyN01_02
 1.0000E+00  Tnudg(55)       Nudging/relaxation time scale (days)
                               for tracer 55: PhyN02_01
 1.0000E+00  Tnudg(56)       Nudging/relaxation time scale (days)
                               for tracer 56: PhyN02_02
 1.0000E+00  Tnudg(57)       Nudging/relaxation time scale (days)
                               for tracer 57: PhyN03_01
 1.0000E+00  Tnudg(58)       Nudging/relaxation time scale (days)
                               for tracer 58: PhyN03_02
 1.0000E+00  Tnudg(59)       Nudging/relaxation time scale (days)
                               for tracer 59: PhyN04_01
 1.0000E+00  Tnudg(60)       Nudging/relaxation time scale (days)
                               for tracer 60: PhyN04_02
 1.0000E+00  Tnudg(61)       Nudging/relaxation time scale (days)
                               for tracer 61: PhyP01_01
 1.0000E+00  Tnudg(62)       Nudging/relaxation time scale (days)
                               for tracer 62: PhyP01_02
 1.0000E+00  Tnudg(63)       Nudging/relaxation time scale (days)
                               for tracer 63: PhyP02_01
 1.0000E+00  Tnudg(64)       Nudging/relaxation time scale (days)
                               for tracer 64: PhyP02_02
 1.0000E+00  Tnudg(65)       Nudging/relaxation time scale (days)
                               for tracer 65: PhyP03_01
 1.0000E+00  Tnudg(66)       Nudging/relaxation time scale (days)
                               for tracer 66: PhyP03_02
 1.0000E+00  Tnudg(67)       Nudging/relaxation time scale (days)
                               for tracer 67: PhyP04_01
 1.0000E+00  Tnudg(68)       Nudging/relaxation time scale (days)
                               for tracer 68: PhyP04_02
 1.0000E+00  Tnudg(69)       Nudging/relaxation time scale (days)
                               for tracer 69: ZooC01_01
 1.0000E+00  Tnudg(70)       Nudging/relaxation time scale (days)
                               for tracer 70: ZooC01_02
 1.0000E+00  Tnudg(71)       Nudging/relaxation time scale (days)
                               for tracer 71: ZooN01_01
 1.0000E+00  Tnudg(72)       Nudging/relaxation time scale (days)
                               for tracer 72: ZooN01_02
 1.0000E+00  Tnudg(73)       Nudging/relaxation time scale (days)
                               for tracer 73: ZooP01_01
 1.0000E+00  Tnudg(74)       Nudging/relaxation time scale (days)
                               for tracer 74: ZooP01_02
 1.0000E+00  Tnudg(75)       Nudging/relaxation time scale (days)
                               for tracer 75: PIC01_01
 1.0000E+00  Tnudg(76)       Nudging/relaxation time scale (days)
                               for tracer 76: PIC01_02
 1.0000E+00  Tnudg(77)       Nudging/relaxation time scale (days)
                               for tracer 77: PIC02_01
 1.0000E+00  Tnudg(78)       Nudging/relaxation time scale (days)
                               for tracer 78: PIC02_02
          T  Hout(idTvar)    Write out tracer 05: DO
          T  Hout(idTvar)    Write out tracer 06: TA
          T  Hout(idTvar)    Write out tracer 07: DIC_01
          T  Hout(idTvar)    Write out tracer 08: DIC_02
          T  Hout(idTvar)    Write out tracer 09: NO3_01
          T  Hout(idTvar)    Write out tracer 10: NO3_02
          T  Hout(idTvar)    Write out tracer 11: NH4_01
          T  Hout(idTvar)    Write out tracer 12: NH4_02
          T  Hout(idTvar)    Write out tracer 13: PO4_01
          T  Hout(idTvar)    Write out tracer 14: PO4_02
          T  Hout(idTvar)    Write out tracer 15: DOC01_01
          T  Hout(idTvar)    Write out tracer 16: DOC01_02
          T  Hout(idTvar)    Write out tracer 17: DOC02_01
          T  Hout(idTvar)    Write out tracer 18: DOC02_02
          T  Hout(idTvar)    Write out tracer 19: DON01_01
          T  Hout(idTvar)    Write out tracer 20: DON01_02
          T  Hout(idTvar)    Write out tracer 21: DON02_01
          T  Hout(idTvar)    Write out tracer 22: DON02_02
          T  Hout(idTvar)    Write out tracer 23: DOP01_01
          T  Hout(idTvar)    Write out tracer 24: DOP01_02
          T  Hout(idTvar)    Write out tracer 25: DOP02_01
          T  Hout(idTvar)    Write out tracer 26: DOP02_02
          T  Hout(idTvar)    Write out tracer 27: POC01_01
          T  Hout(idTvar)    Write out tracer 28: POC01_02
          T  Hout(idTvar)    Write out tracer 29: POC02_01
          T  Hout(idTvar)    Write out tracer 30: POC02_02
          T  Hout(idTvar)    Write out tracer 31: POC03_01
          T  Hout(idTvar)    Write out tracer 32: POC03_02
          T  Hout(idTvar)    Write out tracer 33: PON01_01
          T  Hout(idTvar)    Write out tracer 34: PON01_02
          T  Hout(idTvar)    Write out tracer 35: PON02_01
          T  Hout(idTvar)    Write out tracer 36: PON02_02
          T  Hout(idTvar)    Write out tracer 37: PON03_01
          T  Hout(idTvar)    Write out tracer 38: PON03_02
          T  Hout(idTvar)    Write out tracer 39: POP01_01
          T  Hout(idTvar)    Write out tracer 40: POP01_02
          T  Hout(idTvar)    Write out tracer 41: POP02_01
          T  Hout(idTvar)    Write out tracer 42: POP02_02
          T  Hout(idTvar)    Write out tracer 43: POP03_01
          T  Hout(idTvar)    Write out tracer 44: POP03_02
          T  Hout(idTvar)    Write out tracer 45: PhyC01_01
          T  Hout(idTvar)    Write out tracer 46: PhyC01_02
          T  Hout(idTvar)    Write out tracer 47: PhyC02_01
          T  Hout(idTvar)    Write out tracer 48: PhyC02_02
          T  Hout(idTvar)    Write out tracer 49: PhyC03_01
          T  Hout(idTvar)    Write out tracer 50: PhyC03_02
          T  Hout(idTvar)    Write out tracer 51: PhyC04_01
          T  Hout(idTvar)    Write out tracer 52: PhyC04_02
          T  Hout(idTvar)    Write out tracer 53: PhyN01_01
          T  Hout(idTvar)    Write out tracer 54: PhyN01_02
          T  Hout(idTvar)    Write out tracer 55: PhyN02_01
          T  Hout(idTvar)    Write out tracer 56: PhyN02_02
          T  Hout(idTvar)    Write out tracer 57: PhyN03_01
          T  Hout(idTvar)    Write out tracer 58: PhyN03_02
          T  Hout(idTvar)    Write out tracer 59: PhyN04_01
          T  Hout(idTvar)    Write out tracer 60: PhyN04_02
          T  Hout(idTvar)    Write out tracer 61: PhyP01_01
          T  Hout(idTvar)    Write out tracer 62: PhyP01_02
          T  Hout(idTvar)    Write out tracer 63: PhyP02_01
          T  Hout(idTvar)    Write out tracer 64: PhyP02_02
          T  Hout(idTvar)    Write out tracer 65: PhyP03_01
          T  Hout(idTvar)    Write out tracer 66: PhyP03_02
          T  Hout(idTvar)    Write out tracer 67: PhyP04_01
          T  Hout(idTvar)    Write out tracer 68: PhyP04_02
          T  Hout(idTvar)    Write out tracer 69: ZooC01_01
          T  Hout(idTvar)    Write out tracer 70: ZooC01_02
          T  Hout(idTvar)    Write out tracer 71: ZooN01_01
          T  Hout(idTvar)    Write out tracer 72: ZooN01_02
          T  Hout(idTvar)    Write out tracer 73: ZooP01_01
          T  Hout(idTvar)    Write out tracer 74: ZooP01_02
          T  Hout(idTvar)    Write out tracer 75: PIC01_01
          T  Hout(idTvar)    Write out tracer 76: PIC01_02
          T  Hout(idTvar)    Write out tracer 77: PIC02_01
          T  Hout(idTvar)    Write out tracer 78: PIC02_02
          T  Hout(iHbio2)    Write out seagrass_SgCBm01_01
          T  Hout(iHbio2)    Write out seagrass_SgCBm01_02
          T  Hout(iHbio2)    Write out seagrass_SgNBm01_01
          T  Hout(iHbio2)    Write out seagrass_SgNBm01_02
          T  Hout(iHbio2)    Write out seagrass_SgPBm01_01
          T  Hout(iHbio2)    Write out seagrass_SgPBm01_02
          T  Hout(iHbio2)    Write out seagrass_DICstock01_01
          T  Hout(iHbio2)    Write out seagrass_DICstock01_02
          T  Hout(iHbio2)    Write out seagrass_CH2Ostock01_01
          T  Hout(iHbio2)    Write out seagrass_CH2Ostock01_02
          T  Hout(iHbio2)    Write out seagrass_DOstock01
          T  Hout(iHbio2)    Write out seagrass_NO3stock01_01
          T  Hout(iHbio2)    Write out seagrass_NO3stock01_02
          T  Hout(iHbio2)    Write out seagrass_NH4stock01_01
          T  Hout(iHbio2)    Write out seagrass_NH4stock01_02
          T  Hout(iHbio2)    Write out seagrass_PO4stock01_01
          T  Hout(iHbio2)    Write out seagrass_PO4stock01_02
          T  Hout(iHbio2)    Write out seagrass_LfCBm01
          T  Hout(iHbio2)    Write out seagrass_RtCBm01
          T  Hout(iHbio2)    Write out seagrass_TotSgCBmS01
          T  Hout(iHbio2)    Write out seagrass_TotSgCBm01
          T  Hout(iHbio2)    Write out seagrass_TotLfCBm01
          T  Hout(iHbio2)    Write out seagrass_TotRtCBm01
          T  Hout(iHbio2)    Write out seagrass_LAI01
          T  Hout(iHbio2)    Write out seagrass_LA01
          T  Hout(iHbio2)    Write out seagrass_ELAP01
          T  Hout(iHbio2)    Write out seagrass_Phot01
          T  Hout(iHbio2)    Write out seagrass_Grow01
          T  Hout(iHbio2)    Write out seagrass_Phot_Limiting01
          T  Hout(iHbio2)    Write out seagrass_Grow_Limiting01
          T  Hout(iHbio2)    Write out seagrass_Resp01
          T  Hout(iHbio2)    Write out seagrass_Net_Phot01
          T  Hout(iHbio2)    Write out seagrass_Dieoff01
          T  Qout(iHbiosed3) Write out sediment_poro
          T  Qout(iHbiosed3) Write out sediment_Tmp
          T  Qout(iHbiosed3) Write out sediment_Sal
          T  Qout(iHbiosed3) Write out sediment_O2
          T  Qout(iHbiosed3) Write out sediment_TA
          T  Qout(iHbiosed3) Write out sediment_DIC_01
          T  Qout(iHbiosed3) Write out sediment_DIC_02
          T  Qout(iHbiosed3) Write out sediment_NO3_01
          T  Qout(iHbiosed3) Write out sediment_NO3_02
          T  Qout(iHbiosed3) Write out sediment_NH4_01
          T  Qout(iHbiosed3) Write out sediment_NH4_02
          T  Qout(iHbiosed3) Write out sediment_PO4_01
          T  Qout(iHbiosed3) Write out sediment_PO4_02
          T  Qout(iHbiosed3) Write out sediment_DOC01_01
          T  Qout(iHbiosed3) Write out sediment_DOC01_02
          T  Qout(iHbiosed3) Write out sediment_DOC02_01
          T  Qout(iHbiosed3) Write out sediment_DOC02_02
          T  Qout(iHbiosed3) Write out sediment_POC01_01
          T  Qout(iHbiosed3) Write out sediment_POC01_02
          T  Qout(iHbiosed3) Write out sediment_POC02_01
          T  Qout(iHbiosed3) Write out sediment_POC02_02
          T  Qout(iHbiosed3) Write out sediment_POC03_01
          T  Qout(iHbiosed3) Write out sediment_POC03_02
          T  Qout(iHbiosed3) Write out sediment_DON01_01
          T  Qout(iHbiosed3) Write out sediment_DON01_02
          T  Qout(iHbiosed3) Write out sediment_DON02_01
          T  Qout(iHbiosed3) Write out sediment_DON02_02
          T  Qout(iHbiosed3) Write out sediment_PON01_01
          T  Qout(iHbiosed3) Write out sediment_PON01_02
          T  Qout(iHbiosed3) Write out sediment_PON02_01
          T  Qout(iHbiosed3) Write out sediment_PON02_02
          T  Qout(iHbiosed3) Write out sediment_PON03_01
          T  Qout(iHbiosed3) Write out sediment_PON03_02
          T  Qout(iHbiosed3) Write out sediment_DOP01_01
          T  Qout(iHbiosed3) Write out sediment_DOP01_02
          T  Qout(iHbiosed3) Write out sediment_DOP02_01
          T  Qout(iHbiosed3) Write out sediment_DOP02_02
          T  Qout(iHbiosed3) Write out sediment_POP01_01
          T  Qout(iHbiosed3) Write out sediment_POP01_02
          T  Qout(iHbiosed3) Write out sediment_POP02_01
          T  Qout(iHbiosed3) Write out sediment_POP02_02
          T  Qout(iHbiosed3) Write out sediment_POP03_01
          T  Qout(iHbiosed3) Write out sediment_POP03_02
          T  Qout(iHbiosed3) Write out sediment_PIC_01
          T  Qout(iHbiosed3) Write out sediment_PIC_02
          T  Qout(iHbiosed3) Write out sediment_Mn2
          T  Qout(iHbiosed3) Write out sediment_MnO2
          T  Qout(iHbiosed3) Write out sediment_Fe2
          T  Qout(iHbiosed3) Write out sediment_FeS_01
          T  Qout(iHbiosed3) Write out sediment_FeS2_01
          T  Qout(iHbiosed3) Write out sediment_FeOOH
          T  Qout(iHbiosed3) Write out sediment_FeOOH_PO4_01
          T  Qout(iHbiosed3) Write out sediment_FeOOH_PO4_02
          T  Qout(iHbiosed3) Write out sediment_H2S_01
          T  Qout(iHbiosed3) Write out sediment_SO4_01
          T  Qout(iHbiosed3) Write out sediment_S0_01
          T  Dout(iDbio2)    Write out CO2_airsea
          T  Dout(iDbio2)    Write out pCO2
          T  Dout(iDbio2)    Write out O2_airsea
          T  Dout(iDbio2)    Write out PARbot
          T  Dout(iDbio2)    Write out Tau_ave
          T  Dout(iDbio3)    Write out pH
          T  Dout(iDbio3)    Write out Omega_arg
          T  Dout(iDbio3)    Write out Omega_cal


 Sediment Parameters, Grid: 01
 =============================


 Size     Sd50        Csed        Srho        Wsed        Erate       poros
 Class    (mm)       (kg/m3)     (kg/m3)     (mm/s)     (kg/m2/s)    (nondim)

   1    1.2000E-02  0.0000E+00  2.6700E+03  1.0000E-01  1.0000E-05  5.0000E-01
   2    2.0000E-01  0.0000E+00  2.6700E+03  1.0000E+00  1.0000E-05  5.0000E-01

         tau_ce      tau_cd      nl_tnu2     nl_tnu4     Akt_bak      Tnudg
         (N/m2)      (N/m2)      (m2/s)      (m4/s)       (m2/s)      (day)

   1    7.0000E-02  2.0000E-02  0.0000E+00  0.0000E+00  5.0000E-06  1.0000E+02
   2    1.0000E+00  5.0000E-01  0.0000E+00  0.0000E+00  5.0000E-06  1.0000E+02

         morph_fac
         (nondim)

   1    1.0000E+00
   2    1.0000E+00

 New bed layer formed when deposition exceeds  0.10000E-01 (m).
 Two first layers are combined when 2nd layer smaller than  0.00000E+00 (m).
 Rate coefficient for bed load transport =  0.15000E+00

          F  LtracerSponge(03Turning OFF sponge on tracer 03: mud_01
          F  LtracerSponge(04Turning OFF sponge on tracer 04: mud_02
          T  LtracerSrc(03)  Turning ON  point sources/Sink on tracer 03: mud_01
          F  LtracerSrc(04)  Turning OFF point sources/Sink on tracer 04: mud_02
          F  LtracerCLM(03)  Turning OFF processing of climatology tracer 03: mud_01
          F  LtracerCLM(04)  Turning OFF processing of climatology tracer 04: mud_02
          F  LnudgeTCLM(03)  Turning OFF nudging of climatology tracer 03: mud_01
          F  LnudgeTCLM(04)  Turning OFF nudging of climatology tracer 04: mud_02

          T  Hout(idTvar)   Write out sediment01: mud_01
          T  Hout(idTvar)   Write out sediment02: mud_02
          T  Hout(idfrac)   Write out bed fraction, sediment 01: mudfrac_01
          T  Hout(idfrac)   Write out bed fraction, sediment 02: mudfrac_02
          T  Hout(idfrac)   Write out mass, sediment 01: mudmass_01
          T  Hout(idfrac)   Write out mass, sediment 02: mudmass_02
          T  Hout(idSbed)   Write out BED property 01: bed_thickness
          T  Hout(idSbed)   Write out BED property 02: bed_age
          T  Hout(idSbed)   Write out BED property 03: bed_porosity
          T  Hout(idSbed)   Write out BED property 04: bed_biodiff


 Lateral Boundary Conditions: NLM
 ============================

 Variable               Grid  West Edge    South Edge   East Edge    North Edge
 ---------              ----  ----------   ----------   ----------   ----------

 zeta                     1   Closed       Chapman Imp  Chapman Imp  Chapman Imp

 ubar                     1   Closed       Flather      Flather      Flather

 vbar                     1   Closed       Flather      Flather      Flather

 u                        1   Closed       Rad + Nud    Rad + Nud    Rad + Nud

 v                        1   Closed       Rad + Nud    Rad + Nud    Rad + Nud

 temp                     1   Closed       Rad + Nud    Rad + Nud    Rad + Nud

 salt                     1   Closed       Rad + Nud    Rad + Nud    Rad + Nud

 mud_01                   1   Closed       Rad + Nud    Rad + Nud    Rad + Nud

 mud_02                   1   Closed       Rad + Nud    Rad + Nud    Rad + Nud

 DO                       1   Closed       Rad + Nud    Rad + Nud    Rad + Nud

 TA                       1   Closed       Rad + Nud    Rad + Nud    Rad + Nud

 DIC_01                   1   Closed       Rad + Nud    Rad + Nud    Rad + Nud

 DIC_02                   1   Closed       Rad + Nud    Rad + Nud    Rad + Nud

 NO3_01                   1   Closed       Rad + Nud    Rad + Nud    Rad + Nud

 NO3_02                   1   Closed       Rad + Nud    Rad + Nud    Rad + Nud

 NH4_01                   1   Closed       Rad + Nud    Rad + Nud    Rad + Nud

 NH4_02                   1   Closed       Rad + Nud    Rad + Nud    Rad + Nud

 PO4_01                   1   Closed       Rad + Nud    Rad + Nud    Rad + Nud

 PO4_02                   1   Closed       Rad + Nud    Rad + Nud    Rad + Nud

 DOC01_01                 1   Closed       Rad + Nud    Rad + Nud    Rad + Nud

 DOC01_02                 1   Closed       Rad + Nud    Rad + Nud    Rad + Nud

 DOC02_01                 1   Closed       Rad + Nud    Rad + Nud    Rad + Nud

 DOC02_02                 1   Closed       Rad + Nud    Rad + Nud    Rad + Nud

 DON01_01                 1   Closed       Rad + Nud    Rad + Nud    Rad + Nud

 DON01_02                 1   Closed       Rad + Nud    Rad + Nud    Rad + Nud

 DON02_01                 1   Closed       Rad + Nud    Rad + Nud    Rad + Nud

 DON02_02                 1   Closed       Rad + Nud    Rad + Nud    Rad + Nud

 DOP01_01                 1   Closed       Rad + Nud    Rad + Nud    Rad + Nud

 DOP01_02                 1   Closed       Rad + Nud    Rad + Nud    Rad + Nud

 DOP02_01                 1   Closed       Rad + Nud    Rad + Nud    Rad + Nud

 DOP02_02                 1   Closed       Rad + Nud    Rad + Nud    Rad + Nud

 POC01_01                 1   Closed       Rad + Nud    Rad + Nud    Rad + Nud

 POC01_02                 1   Closed       Rad + Nud    Rad + Nud    Rad + Nud

 POC02_01                 1   Closed       Rad + Nud    Rad + Nud    Rad + Nud

 POC02_02                 1   Closed       Rad + Nud    Rad + Nud    Rad + Nud

 POC03_01                 1   Closed       Rad + Nud    Rad + Nud    Rad + Nud

 POC03_02                 1   Closed       Rad + Nud    Rad + Nud    Rad + Nud

 PON01_01                 1   Closed       Rad + Nud    Rad + Nud    Rad + Nud

 PON01_02                 1   Closed       Rad + Nud    Rad + Nud    Rad + Nud

 PON02_01                 1   Closed       Rad + Nud    Rad + Nud    Rad + Nud

 PON02_02                 1   Closed       Rad + Nud    Rad + Nud    Rad + Nud

 PON03_01                 1   Closed       Rad + Nud    Rad + Nud    Rad + Nud

 PON03_02                 1   Closed       Rad + Nud    Rad + Nud    Rad + Nud

 POP01_01                 1   Closed       Rad + Nud    Rad + Nud    Rad + Nud

 POP01_02                 1   Closed       Rad + Nud    Rad + Nud    Rad + Nud

 POP02_01                 1   Closed       Rad + Nud    Rad + Nud    Rad + Nud

 POP02_02                 1   Closed       Rad + Nud    Rad + Nud    Rad + Nud

 POP03_01                 1   Closed       Rad + Nud    Rad + Nud    Rad + Nud

 POP03_02                 1   Closed       Rad + Nud    Rad + Nud    Rad + Nud

 PhyC01_01                1   Closed       Rad + Nud    Rad + Nud    Rad + Nud

 PhyC01_02                1   Closed       Rad + Nud    Rad + Nud    Rad + Nud

 PhyC02_01                1   Closed       Rad + Nud    Rad + Nud    Rad + Nud

 PhyC02_02                1   Closed       Rad + Nud    Rad + Nud    Rad + Nud

 PhyC03_01                1   Closed       Rad + Nud    Rad + Nud    Rad + Nud

 PhyC03_02                1   Closed       Rad + Nud    Rad + Nud    Rad + Nud

 PhyC04_01                1   Closed       Rad + Nud    Rad + Nud    Rad + Nud

 PhyC04_02                1   Closed       Rad + Nud    Rad + Nud    Rad + Nud

 PhyN01_01                1   Closed       Rad + Nud    Rad + Nud    Rad + Nud

 PhyN01_02                1   Closed       Rad + Nud    Rad + Nud    Rad + Nud

 PhyN02_01                1   Closed       Rad + Nud    Rad + Nud    Rad + Nud

 PhyN02_02                1   Closed       Rad + Nud    Rad + Nud    Rad + Nud

 PhyN03_01                1   Closed       Rad + Nud    Rad + Nud    Rad + Nud

 PhyN03_02                1   Closed       Rad + Nud    Rad + Nud    Rad + Nud

 PhyN04_01                1   Closed       Rad + Nud    Rad + Nud    Rad + Nud

 PhyN04_02                1   Closed       Rad + Nud    Rad + Nud    Rad + Nud

 PhyP01_01                1   Closed       Rad + Nud    Rad + Nud    Rad + Nud

 PhyP01_02                1   Closed       Rad + Nud    Rad + Nud    Rad + Nud

 PhyP02_01                1   Closed       Rad + Nud    Rad + Nud    Rad + Nud

 PhyP02_02                1   Closed       Rad + Nud    Rad + Nud    Rad + Nud

 PhyP03_01                1   Closed       Rad + Nud    Rad + Nud    Rad + Nud

 PhyP03_02                1   Closed       Rad + Nud    Rad + Nud    Rad + Nud

 PhyP04_01                1   Closed       Rad + Nud    Rad + Nud    Rad + Nud

 PhyP04_02                1   Closed       Rad + Nud    Rad + Nud    Rad + Nud

 ZooC01_01                1   Closed       Rad + Nud    Rad + Nud    Rad + Nud

 ZooC01_02                1   Closed       Rad + Nud    Rad + Nud    Rad + Nud

 ZooN01_01                1   Closed       Rad + Nud    Rad + Nud    Rad + Nud

 ZooN01_02                1   Closed       Rad + Nud    Rad + Nud    Rad + Nud

 ZooP01_01                1   Closed       Rad + Nud    Rad + Nud    Rad + Nud

 ZooP01_02                1   Closed       Rad + Nud    Rad + Nud    Rad + Nud

 PIC01_01                 1   Closed       Rad + Nud    Rad + Nud    Rad + Nud

 PIC01_02                 1   Closed       Rad + Nud    Rad + Nud    Rad + Nud

 PIC02_01                 1   Closed       Rad + Nud    Rad + Nud    Rad + Nud

 PIC02_02                 1   Closed       Rad + Nud    Rad + Nud    Rad + Nud

 tke                      1   Closed       Gradient     Gradient     Gradient

 ubar_stokes              1   Closed       Closed       Gradient     Closed

 vbar_stokes              1   Closed       Closed       Gradient     Closed

 u_stokes                 1   Closed       Closed       Gradient     Closed

 v_stokes                 1   Closed       Closed       Gradient     Closed

 Activated C-preprocessing Options:

 SHIRAHO_REEF        Shiraho Reef Case
 ANA_BIOLOGY         Analytical biology initial conditions.
 ANA_BPFLUX          Analytical bottom passive tracers fluxes.
 ANA_BSFLUX          Analytical kinematic bottom salinity flux.
 ANA_BTFLUX          Analytical kinematic bottom temperature flux.
 ANA_PSOURCE         Analytical point sources and sinks.
 ANA_SEDIMENT        Analytical sediment initial conditions.
 ANA_SPFLUX          Analytical surface passive tracer fluxes.
 ASSUMED_SHAPE       Using assumed-shape arrays.
 ATM_PRESS           Impose atmospheric pressure onto sea surface.
 !BOUNDARY_ALLGATHER Using mpi_allreduce in mp_boundary routine.
 BULK_FLUXES         Surface bulk fluxes parameterization.
 !COLLECT_ALL...     Using mpi_isend/mpi_recv in mp_collect routine.
 DIAGNOSTICS_BIO     Computing and writing biological diagnostic terms.
 DIFF_3DCOEF         Horizontal, time-dependent 3D diffusion coefficient.
 DJ_GRADPS           Parabolic Splines density Jacobian (Shchepetkin, 2002).
 DOUBLE_PRECISION    Double precision arithmetic.
 EMINUSP             Compute Salt Flux using E-P.
 GLS_MIXING          Generic Length-Scale turbulence closure.
 KANTHA_CLAYSON      Kantha and Clayson stability function formulation.
 LIMIT_VDIFF         Impose an upper limit on vertical diffusion coefficient.
 LIMIT_VVISC         Impose an upper limit on vertical viscosity coefficient.
 LONGWAVE_OUT        Compute outgoing longwave radiation internally.
 MASKING             Land/Sea masking.
 MCT_LIB             Using Model Coupling Toolkit library.
 MIX_S_TS            Mixing of tracers along constant S-surfaces.
 MIX_S_UV            Mixing of momentum along constant S-surfaces.
 MPI                 MPI distributed-memory configuration.
 WEC_VF              Vortex Force wave current interaction.
 BOTTOM_STREAMING    Wave current streaming term.
 WDISS_WAVEMOD       Wave energy dissipation acquired from coupled wave model.
 NONLINEAR           Nonlinear Model.
 NONLIN_EOS          Nonlinear Equation of State for seawater.
 NO_LBC_ATT          Not checking NetCDF global attribute NLM_LBC during restart.
 POWER_LAW           Power-law shape time-averaging barotropic filter.
 PROFILE             Time profiling activated .
 K_GSCHEME           Third-order upstream advection of TKE fields.
 RADIATION_2D        Use tangential phase speed in radiation conditions.
 REDUCE_ALLGATHER    Using mpi_allgather in mp_reduce routine.
 !RST_SINGLE         Double precision fields in restart NetCDF file.
 SALINITY            Using salinity.
 SEDIMENT            Cohesive and noncohesive sediments.
 SUSPLOAD            Activate suspended sediment transport.
 NONCOHESIVE_BED1    Activate non-cohesive (original) sediment bed.
 SOLVE3D             Solving 3D Primitive Equations.
 SSW_BBL             Styles and Glenn Bottom Boundary Layer - modified.
 SWAN_COUPLING       SWAN model coupling.
 TKE_WAVEDISS        Wave breaking surface tke flux based on wave amplitude.
 TS_U3HADVECTION     Third-order upstream horizontal advection of tracers.
 TS_C4VADVECTION     Fourth-order centered vertical advection of tracers.
 TS_DIF2             Harmonic mixing of tracers.
 TS_SMAGORINSKY      Smagorinksy-like time-dependent diffusion coefficients.
 UV_ADV              Advection of momentum.
 UV_COR              Coriolis term.
 UV_U3HADVECTION     Third-order upstream horizontal advection of 3D momentum.
 UV_C4VADVECTION     Fourth-order centered vertical advection of momentum.
 UV_KIRBY            Compute uwave and vwave Kirby avg velocities.
 UV_VIS2             Harmonic mixing of momentum.
 UV_SMAGORINSKY      Smagorinksy-like time-dependent viscosity coefficients.
 VAR_RHO_2D          Variable density barotropic mode.
 VISC_3DCOEF         Horizontal, time-dependent 3D viscosity coefficient.
 WAVES_OCEAN         Two-way wave-ocean models coupling.
 WET_DRY             Wetting and drying activated.
 ZOS_HSIG            Wave amplitude used for Zos calculation.

 CHECKADJ - use caution when activating: TS_SMAGORINSKY
            REASON: stability problems, WARNING.

 CHECKADJ - use caution when activating: UV_SMAGORINSKY
            REASON: stability problems, WARNING.

 Process Information:

 Node #  0 (pid=       0) is active.
 yt_debug: mod_reef_ecosys.F allocate_reef_ecosys() finished seagrass aloc
 yt_debug: mod_reef_ecosys.F allocate_reef_ecosys() finished sediment aloc

 INITIAL: Configuring and initializing forward nonlinear model ...
 *******

    GET_GRID    - bathymetry at RHO-points: h
[...]
SWANtoROMS Min/Max DISWCAP (Wm-2):     0.000000E+00  6.344719E-05
SWANtoROMS Min/Max HSIGN   (m):        0.000000E+00  1.407334E+00
SWANtoROMS Min/Max RTP     (s):        0.000000E+00  1.118034E+01
SWANtoROMS Min/Max TMBOT   (s):        0.000000E+00  1.231709E+01
SWANtoROMS Min/Max UBOT    (ms-1):     0.000000E+00  8.272818E-01
SWANtoROMS Min/Max DIR     (deg):      4.697298E-01  5.962030E+00
SWANtoROMS Min/+time 20231007.133000   , step     81; iteration    1; sweep 1 grid   1
Max WLEN    (m):        1.000000E+00  2.679868E+01
 ** ROMS grid  1 sent data to SWAN grid  1
+time 20231007.133000   , step     81; iteration    1; sweep 2 grid   1
+time 20231007.133000   , step     81; iteration    1; sweep 3 grid   1
+time 20231007.133000   , step     81; iteration    1; sweep 4 grid   1
 150120972 2023-10-14 13:21:00.00  4.392002E-03  2.780920E+02  2.780964E+02  6.793982E+08
                       (23,037,8)  2.534723E-03  3.315688E-03  9.395527E-01  2.003662E+00
 150120984 2023-10-14 13:22:00.00  4.383631E-03  2.780902E+02  2.780946E+02  6.792751E+08
                       (22,063,8)  2.025096E-02  1.101325E-01  6.459258E-01  2.069550E+00
 150120996 2023-10-14 13:23:00.00  4.376360E-03  2.780893E+02  2.780937E+02  6.791523E+08
                       (23,034,8)  1.507363E-02  1.839861E-01  8.899557E-01  2.126728E+00
 150121008 2023-10-14 13:24:00.00  4.369482E-03  2.780880E+02  2.780924E+02  6.790289E+08
                       (23,035,8)  0.000000E+00  8.367098E-03  8.952317E-01  2.218009E+00
 150121020 2023-10-14 13:25:00.00  4.364644E-03  2.780864E+02  2.780907E+02  6.789053E+08
                       (22,063,8)  1.207683E-02  8.176347E-02  9.064278E-01  2.182055E+00
 150121032 2023-10-14 13:26:00.00  4.360826E-03  2.780848E+02  2.780891E+02  6.787821E+08
                       (22,063,8)  6.402623E-03  5.566548E-02  9.741965E-01  2.270674E+00
 150121044 2023-10-14 13:27:00.00  4.356302E-03  2.780833E+02  2.780876E+02  6.786594E+08
                       (23,035,8)  1.821468E-05  1.069792E-02  2.044078E+00  2.377734E+00
 150121056 2023-10-14 13:28:00.00  4.353089E-03  2.780812E+02  2.780856E+02  6.785368E+08
                       (23,034,8)  0.000000E+00  9.742713E-02  1.351143E+00  2.312158E+00
 150121068 2023-10-14 13:29:00.00  4.347730E-03  2.780792E+02  2.780835E+02  6.784148E+08
                       (23,034,8)  0.000000E+00  9.886745E-02  1.386480E+00  2.358915E+00
 150121080 2023-10-14 13:30:00.00  4.342446E-03  2.780771E+02  2.780814E+02  6.782935E+08
                       (23,044,8)  7.246293E-03  3.381048E-02  1.574562E+00  2.398019E+00
 ** ROMS grid  1 recv data from SWAN grid  1
SWANtoROMS Min/Max DISBOT  (Wm- == SWAN grid  1 sent wave data to ROMS grid  1
 == SWAN grid  1 recv data from ROMS grid  1
ROMStoSWAN Min/Max DEPTH   (m):       -1.000000E+01  1.017490E+02
ROMStoSWAN Min/Max WLEV    (m):        2.140160E-01  1.010000E+01
ROMStoSWAN Min/Max VELX    (ms-2):     0.000000E+00  5.012428E-03
SWANtoROMS Min/Max DISSURF (Wm-2):     0.000000E+00  3.302729E-02
SWANtoROMS Min/Max DISWCAP (Wm-2):     0.000000E+00  7.157696E-05
SWANtoROMS Min/Max HSIGN   (m):        0.000000E+00  1.400226E+00
SWANtoROMS Min/Max RTP 1):    -6.453351E-01  7.218122E-01
ROMStoSWAN Min/Max VELY    (ms-1):    -4.738354E-01  2.261456E+00
ROMStoSWAN Min/Max ZO      (m):        5.000000E-02  7.500000E-02
+time 20231007.134000   , step     82; iteration    1; sweep 1 grid   1
    (s):        0.000000E+00  1.118034E+01
SWANtoROMS Min/Max TMBOT   (s):        0.000000E+00  1.232228E+01
SWANtoROMS Min/Max UBOT    (ms-1):     0.000000E+00  8.696180E-01
SWANtoROMS Min/Max DIR     (deg):      4.071214E-01  5.081170E+00
SWANtoROMS Min/Max WLEN    (m):        1.000000E+00  2.659545E+01
 ** ROMS grid  1 sent data to SWAN grid  1
+time 20231007.134000   , step     82; iteration    1; sweep 2 grid   1
      WRT_HIS     - wrote history     fields (Index=1,1) in record = 0000028
+time 20231007.134000   , step     82; iteration    1; sweep 3 grid   1
+time 20231007.134000   , step     82; iteration    1; sweep 4 grid   1
      WRT_QUICK   - wrote quicksave   fields (Index=1,1) in record = 0000028
      WRT_DIAGS   - wrote diagnostics fields             in record = 0000027
    GET_2DFLD   - solar shortwave radiation flux,                  2023-10-14 14:30:00.00
                   (Grid=01, Rec=0006888, Index=2, File: Ishigaki_frc_JMAobs_2023_swrad.nc)
                   (Tmin=       8400.6458 Tmax=       8765.6042)      t =       8687.6042
                   (Min =  0.00000000E+00 Max =  0.00000000E+00)      regrid = F
    GET_2DFLD   - downwelling longwave radiation flux,             2023-10-14 14:30:00.00
                   (Grid=01, Rec=0006816, Index=2, File: Ishigaki_frc_JMAobs_2023_lwrad_down.nc)
                   (Tmin=       8400.6458 Tmax=       8765.6042)      t =       8687.6042
                   (Min =  1.05408830E-04 Max =  1.05408830E-04)      regrid = F
 150121092 2023-10-14 13:31:00.00  4.339314E-03  2.780740E+02  2.780784E+02  6.781727E+08
                       (23,033,8)  9.216283E-03  1.622533E-01  1.516049E+00  2.358431E+00
 150121104 2023-10-14 13:32:00.00  4.339886E-03  2.780719E+02  2.780763E+02  6.780530E+08
                       (23,043,8)  5.196466E-03  9.275329E-02  1.450868E+00  2.337712E+00
 150121116 2023-10-14 13:33:00.00  4.342130E-03  2.780700E+02  2.780743E+02  6.779331E+08
                       (23,044,3)  4.072423E-03  8.905750E-02  1.356214E+00  2.407422E+00
 150121128 2023-10-14 13:34:00.00  4.343183E-03  2.780678E+02  2.780722E+02  6.778129E+08
                       (22,022,8)  9.298012E-04  9.380430E-02  1.356523E+00  2.528688E+00
 150121140 2023-10-14 13:35:00.00  4.346576E-03  2.780649E+02  2.780692E+02  6.776925E+08
                       (23,044,8)  1.732943E-03  6.144215E-03  1.638810E+00  2.319671E+00
 150121152 2023-10-14 13:36:00.00  4.350648E-03  2.780617E+02  2.780661E+02  6.775726E+08
                       (23,032,8)  1.617672E-02  2.091867E-01  7.482505E-01  2.353792E+00
 150121164 2023-10-14 13:37:00.00  4.355624E-03  2.780586E+02  2.780630E+02  6.774539E+08
                       (36,118,8)  1.232387E-02  9.898969E-02  1.924384E+00  2.448566E+00
 150121176 2023-10-14 13:38:00.00  4.362277E-03  2.780557E+02  2.780601E+02  6.773362E+08
                       (22,025,8)  5.794205E-04  1.326824E-02  9.657833E-01  2.479012E+00
 150121188 2023-10-14 13:39:00.00  4.372945E-03  2.780523E+02  2.780567E+02  6.772181E+08
                       (22,022,8)  1.853916E-02  1.904044E-01  1.345381E+00  2.420546E+00
 == SWAN grid  1 sent wave data to ROMS grid  1
 == SWAN grid  1 recv data from ROMS grid  1
ROMStoSWAN Min/Max DEPTH   (m):       -1.000000E+01  1.017490E+02
ROMStoSWAN Min/Max WLEV    (m):        1.596007E-01  1.010000E+01
ROMStoSWAN Min/Max VELX    (ms- 150121200 2023-10-14 13:40:00.00  4.384378E-03  2.780490E+02  2.780534E+02  6.771005E+08
                       (22,025,8)  0.000000E+00  1.289589E-02  1.365752E+00  2.501437E+00
 ** ROMS grid  1 recv data from SWAN grid  1
SWANtoROMS Min/Max DISBOT  (Wm-2):     0.000000E+00  5.139089E-03
SWANtoROMS Min/Max DISSURF (Wm-2):     0.000000E+00  3.316603E-02
SWANtoROMS Min/Max DISWCAP (Wm-2):     0.000000E+00  9.002779E-05
SWANtoROMS Min/Max HSIGN   (m):        0.000000E+00  1.395446E+00
SWANtoROMS Min/Max RTP 1):    -6.983024E-01  7.538097E-01
ROMStoSWAN Min/Max VELY    (ms-1):    -5.476611E-01  2.352138E+00
ROMStoSWAN Min/Max ZO      (m):        5.000000E-02  7.500000E-02
+time 20231007.135000   , step     83; iteration    1; sweep 1 grid   1
    (s):        0.000000E+00  1.118034E+01
SWANtoROMS Min/Max TMBOT   (s):        0.000000E+00  1.232115E+01
SWANtoROMS Min/Max UBOT    (ms-1):     0.000000E+00  9.198843E-01
SWANtoROMS Min/Max DIR     (deg):      3.837539E-01  6.134067E+00
SWANtoROMS Min/Max WLEN    (m):        1.000000E+00  2.648744E+01
 ** ROMS grid  1 sent data to SWAN grid  1
+time 20231007.135000   , step     83; iteration    1; sweep 2 grid   1
+time 20231007.135000   , step     83; iteration    1; sweep 3 grid   1
+time 20231007.135000   , step     83; iteration    1; sweep 4 grid   1
 150121212 2023-10-14 13:41:00.00  4.397026E-03  2.780454E+02  2.780498E+02  6.769836E+08
                       (22,022,8)  0.000000E+00  1.007522E-01  1.574106E+00  2.632528E+00
 150121224 2023-10-14 13:42:00.00  4.413114E-03  2.780415E+02  2.780460E+02  6.768672E+08
                       (23,032,8)  1.044733E-02  1.750765E-01  1.849059E+00  2.612297E+00
 150121236 2023-10-14 13:43:00.00  4.431348E-03  2.780386E+02  2.780430E+02  6.767510E+08
                       (23,031,8)  9.041510E-06  2.601918E-01  9.359633E-01  2.602225E+00
 150121248 2023-10-14 13:44:00.00  4.451607E-03  2.780352E+02  2.780396E+02  6.766341E+08
                       (23,033,8)  1.250066E-02  2.578299E-02  1.541785E+00  2.839298E+00
 150121260 2023-10-14 13:45:00.00  4.473109E-03  2.780313E+02  2.780358E+02  6.765171E+08
                       (23,032,8)  1.756985E-02  2.013331E-01  1.277776E+00  2.670515E+00
 150121272 2023-10-14 13:46:00.00  4.497802E-03  2.780267E+02  2.780312E+02  6.764001E+08
                       (23,031,8)  1.975801E-03  1.489841E-01  1.476407E+00  2.589027E+00
 150121284 2023-10-14 13:47:00.00  4.525800E-03  2.780234E+02  2.780280E+02  6.762852E+08
                       (21,009,8)  5.876165E-03  6.346826E-02  1.152899E+00  2.567963E+00
 150121296 2023-10-14 13:48:00.00  4.553025E-03  2.780191E+02  2.780237E+02  6.761694E+08
                       (23,032,8)  0.000000E+00  1.316578E-02  2.902832E+00  2.698411E+00
 150121308 2023-10-14 13:49:00.00  4.587638E-03  2.780149E+02  2.780195E+02  6.760539E+08
                       (22,021,8)  7.185639E-03  1.049818E-01  1.333047E+00  2.604135E+00
 == SWAN grid  1 sent wave data to ROMS grid  1
 == SWAN grid  1 recv data from ROMS grid  1
ROMStoSWAN Min/Max DEPTH   (m):       -1.000000E+01  1.017490E+02
ROMStoSWAN Min/Max WLEV    (m):        1.112015E-01  1.010000E+01
ROMStoSWAN Min/Max VELX    (ms- 150121320 2023-10-14 13:50:00.00  4.622725E-03  2.780108E+02  2.780155E+02  6.759390E+08
                       (22,021,8)  9.536092E-05  7.980926E-02  1.142465E+00  2.682661E+00
 ** ROMS grid  1 recv data from SWAN grid  1
SWANtoROMS Min/Max DISBOT  (Wm-1):    -7.564135E-01  7.431436E-01
ROMStoSWAN Min/Max VELY    (ms-1):    -6.446117E-01  2.528275E+00
ROMStoSWAN Min/Max ZO      (m):        5.000000E-02  7.500000E-02
+time 20231007.140000   , step     84; iteration    1; sweep 1 grid   1
2):     0.000000E+00  5.943137E-03
SWANtoROMS Min/Max DISSURF (Wm-2):     0.000000E+00  3.357545E-02
SWANtoROMS Min/Max DISWCAP (Wm-2):     0.000000E+00  9.692711E-05
SWANtoROMS Min/Max HSIGN   (m):        0.000000E+00  1.390534E+00
SWANtoROMS Min/Max RTP     (s):        0.000000E+00  1.542585E+01
SWANtoROMS Min/Max TMBOT   (s):        0.000000E+00  1.231261E+01
SWANtoROMS Min/Max UBOT    (ms-1):     0.000000E+00  9.617993E-01
SWANtoROMS Min/Max DIR     (deg):      3.334991E-01  6.111214E+00
SWANtoROMS Min/Max WLEN    (m):        1.000000E+00  2.633430E+01
 ** ROMS grid  1 sent data to SWAN grid  1
+time 20231007.140000   , step     84; iteration    1; sweep 2 grid   1
+time 20231007.140000   , step     84; iteration    1; sweep 3 grid   1
+time 20231007.140000   , step     84; iteration    1; sweep 4 grid   1
 150121332 2023-10-14 13:51:00.00  4.662076E-03  2.780062E+02  2.780109E+02  6.758240E+08
                       (23,032,8)  0.000000E+00  1.166283E-02  1.807720E+00  2.819923E+00
 150121344 2023-10-14 13:52:00.00  4.708379E-03  2.780021E+02  2.780068E+02  6.757095E+08
                       (23,031,4)  2.267254E-02  2.584060E-01  9.483219E-01  2.882596E+00
 150121356 2023-10-14 13:53:00.00  4.756356E-03  2.779991E+02  2.780038E+02  6.755949E+08
                       (22,022,8)  0.000000E+00  6.301468E-03  2.233438E+00  2.803161E+00
 150121368 2023-10-14 13:54:00.00  4.805166E-03  2.779946E+02  2.779994E+02  6.754792E+08
                       (23,031,8)  1.111798E-02  2.029514E-01  2.037039E+00  2.878396E+00
 150121380 2023-10-14 13:55:00.00  4.849754E-03  2.779899E+02  2.779947E+02  6.753639E+08
                       (23,048,8)  7.944473E-04  8.577748E-02  2.130222E+00  2.348466E+00
 150121392 2023-10-14 13:56:00.00  4.903254E-03  2.779859E+02  2.779908E+02  6.752500E+08
                       (23,031,8)  3.833871E-04  2.439869E-02  1.944218E+00  2.180016E+00
 150121404 2023-10-14 13:57:00.00  4.962786E-03  2.779821E+02  2.779871E+02  6.751357E+08
                       (33,096,8)  1.925624E-02  1.459444E-01  1.361318E+00  2.177327E+00
 150121416 2023-10-14 13:58:00.00  5.022141E-03  2.779774E+02  2.779825E+02  6.750207E+08
                       (23,048,5)  0.000000E+00  8.083096E-02  1.878802E+00  2.075375E+00
 150121428 2023-10-14 13:59:00.00  5.088687E-03  2.779734E+02  2.779784E+02  6.749061E+08
                       (23,048,8)  9.510426E-03  1.264472E-01  1.503745E+00  2.073075E+00
 Node   # 10 CPU:    2134.656
 == SWAN grid  1 sent wave data to ROMS grid  1
 == SWAN grid  1 recv data from ROMS grid  1
ROMStoSWAN Min/Max DEPTH   (m):       -1.000000E+01  1.017490E+02
ROMStoSWAN Min/Max WLEV    (m):        3.927194E-02  1.010000E+01
ROMStoSWAN Min/Max VELX    (ms- Node   # 11 CPU:    2135.000
 Node   # 25 CPU:    2135.266
 Node   # 13 CPU:    2135.485
 Node   # 15 CPU:    2133.547
 Node   #  3 CPU:    2133.454
 Node   #  9 CPU:    2134.594
 Node   # 12 CPU:    2134.547
 Node   # 19 CPU:    2133.844
 Node   # 20 CPU:    2135.656
 Node   # 21 CPU:    2134.797
 Node   # 16 CPU:    2135.718
 Node   #  8 CPU:    2134.954
 Node   # 22 CPU:    2134.906
 150121440 2023-10-14 14:00:00.00  5.159256E-03  2.779695E+02  2.779747E+02  6.747922E+08
                       (23,029,8)  4.659227E-03  7.840710E-02  1.670643E+00  2.102304E+00
 ** ROMS grid  1 recv data from SWAN grid  1
SWANtoROMS Min/Max DISBOT  (Wm- Node   #  4 CPU:    2133.656
 Node   # 18 CPU:    2135.094
 Node   # 14 CPU:    2134.734
 Node   # 27 CPU:    2133.281
 Node   #  1 CPU:    2134.656
 Node   #  2 CPU:    2134.141
 Node   # 24 CPU:    2134.828
 Node   # 26 CPU:    2135.126
 Node   # 17 CPU:    2134.094
 Node   #  5 CPU:    2133.719
 Node   #  7 CPU:    2135.329
 Node   # 23 CPU:    2135.062
 Node   #  6 CPU:    2133.812
2):     0.000000E+00  7.078085E-03
SWANtoROMS Min/Max DISSURF (Wm-2):     0.000000E+00  3.453705E-02
SWANtoROMS Min/Max DISWCAP (Wm-2):     0.000000E+00  1.112147E-04
SWANtoROMS Min/Max HSIGN   (m):        0.000000E+00  1.385352E+00
SWANtoROMS Min/Max RTP 1):    -8.305004E-01  6.259478E-01
ROMStoSWAN Min/Max VELY    (ms-1):    -7.289877E-01  1.902297E+00
ROMStoSWAN Min/Max ZO      (m):        5.000000E-02  7.500000E-02
    (s):        0.000000E+00  1.542585E+01
SWANtoROMS Min/Max TMBOT   (s):        0.000000E+00  1.229236E+01
SWANtoROMS Min/Max UBOT    (ms-1):     0.000000E+00  9.845682E-01
SWANtoROMS Min/Max DIR     (deg):      3.020196E-01  6.211614E+00
SWANtoROMS Min/Max WLEN    (m):        1.000000E+00  2.623741E+01
 ** ROMS grid  1 sent data to SWAN grid  1
 Found Error: 05   Line: 4832     Source: ROMS/Modules/mod_netcdf.F, netcdf_put_fvar

 NETCDF_PUT_FVAR_1D - error while writing variable:  ocean_time
                      in input file:  Z:/COAWST_OUTPUT/Yaeyama/Shiraho_reef2_eco/SR_veg_eco2_sg_his_20231001_test_14_cont02.nc
                      call from:  ROMS/Utility/wrt_his.F
 Input/output error
 Found Error: 03   Line: 156      Source: ROMS/Utility/wrt_his.F+time 20231007.141000   , step     85; iteration    1; sweep 1 grid   1

 Found Error: 03   Line: 170      Source: ROMS/Nonlinear/output.F
 Found Error: 03   Line: 630      Source: ROMS/Nonlinear/main3d.F
 Found Error: 03   Line: 320      Source: ROMS/Drivers/nl_ocean.h

 Elapsed CPU time (seconds):

 Node   #  0 CPU:    2101.234
 Total:             59735.190

 Nonlinear model elapsed CPU time profile, Grid: 01

  Allocation and array initialization ..............         0.982  ( 0.0016 %)
  Ocean state initialization .......................      1596.657  ( 2.6729 %)
  Reading of input data ............................       391.436  ( 0.6553 %)
  Processing of input data .........................      1816.274  ( 3.0405 %)
  Processing of output time averaged data ..........         1.014  ( 0.0017 %)
  Computation of vertica+time 20231007.141000   , step     85; iteration    1; sweep 2 grid   1
l boundary conditions ......         0.341  ( 0.0006 %)
  Computation of global information integrals ......        71.299  ( 0.1194 %)
  Writing of output data ...........................       983.596  ( 1.6466 %)
  Model 2D kernel ..................................      1809.393  ( 3.0290 %)
  2D/3D coupling, vertical metrics .................       147.797  ( 0.2474 %)
  Omega vertical velocity ..........................        34.914  ( 0.0584 %)
  Equation of state for seawater ...................    +time 20231007.141000   , step     85; iteration    1; sweep 3 grid   1
   133.959  ( 0.2243 %)
  Biological module, source/sink terms .............     10867.539  (18.1929 %)
  Sediment transport module, source/sink terms .....     22336.937  (37.3933 %)
  Atmosphere-Ocean bulk flux parameterization ......       218.137  ( 0.3652 %)
  GLS vertical mixing parameterization .............       543.539  ( 0.9099 %)
  3D equations right-side terms ....................      1406.886  ( 2.3552 %)
  3D equations predictor step ......................      8605.693  (14.4064 %)
  Pressure gradient ................................        26.116  ( 0.0437 %)
  Harmonic mixing of tracers, S-surfaces ...........      1272.303  ( 2.1299 %)
  Biharmonic mixing of tracers, geopotentials ......        45.417  ( 0.0760 %)
  Harmonic stress tensor+time 20231007.141000   , step     85; iteration    1; sweep 4 grid   1
, S-surfaces ...............        42.402  ( 0.0710 %)
  Corrector time-step for 3D momentum ..............        68.742  ( 0.1151 %)
  Corrector time-step for tracers ..................      6927.374  (11.5968 %)
  Bottom boundary layer module .....................       128.036  ( 0.2143 %)
  Reading model state vector .......................        59.720  ( 0.1000 %)
  Unused 03 ........................................      1594.908  ( 2.6700 %)
                                              Total:     61131.411  102.3374

 Nonlinear model message Passage profile, Grid: 01

  Message Passage: 2D halo exchanges ...............      3708.069  ( 6.2075 %)
  Message Passage: 3D halo exchanges ...............      1718.938  ( 2.8776 %)
  Message Passage: 4D halo exchanges ...............     23605.087  (39.5162 %)
  Message Passage: data broadcast ..................      1051.381  ( 1.7601 %)
  Message Passage: data reduction ..................        16.979  ( 0.0284 %)
  Message Passage: data gathering ..................       210.095  ( 0.3517 %)
  Message Passage: data scattering..................         1.182  ( 0.0020 %)
  Message Passage: boundary data gathering .........       101.393  ( 0.1697 %)
                                              Total:     30413.124   50.9132

  Unique code regions profiled .....................     61131.411  102.3374 %
  Residual, non-profiled code ......................     -1396.221   -2.3374 %


 All percentages are with respect to total time =        59735.190


 ROMS/TOMS - Output NetCDF summary for Grid 01:
             number of time records written in HISTORY file = 00000029

 Analytical header files used:

     ROMS/Functionals/ana_biology.h
     ROMS/Functionals/ana_btflux.h
     ROMS/Functionals/ana_psource.h
     ROMS/Functionals/ana_stflux.h
     ROMS/Functionals/ana_tobc_bio.h

 Biology model header files used:

     ROMS/Nonlinear/Biology/reef_ecosys.h
 Found Error: 03   Line: 456      Source: ROMS/Utility/close_io.F

 ROMS/TOMS - Output error ............ exit_flag:   3


 ERROR: Abnormal termination: NetCDF OUTPUT.
 REASON: Input/output error                                                              
