!  Floats Input Parameters.
!
!svn $Id$
!========================================================= Hernan G. Arango ===
!  Copyright (c) 2002-2014 The ROMS/TOMS Group                                !
!    Licensed under a MIT/X style license                                     !
!    See License_ROMS.txt                                                     !
!==============================================================================
!                                                                             !
! Input parameters can be entered in ANY order, provided that the parameter   !
! KEYWORD (usually, upper case) is typed correctly followed by "="  or "=="   !
! symbols. Any comment lines are allowed and must begin with an exclamation   !
! mark (!) in column one.  Comments may  appear to the right of a parameter   !
! specification to improve documentation.  Comments will be ignored  during   !
! reading.  Blank lines are also allowed and ignored. Continuation lines in   !
! a parameter specification are allowed and must be preceded by a backslash   !
! (\).  In some instances, more than one value is required for a parameter.   !
! If fewer values are provided, the  last value  is assigned for the entire   !
! parameter array.  The multiplication symbol (*),  without blank spaces in   !
! between, is allowed for a parameter specification.  For example, in a two   !
! grids nested application:                                                   !
!                                                                             !
!    AKT_BAK == 2*1.0d-6  2*5.0d-6              ! m2/s                        !
!                                                                             !
! indicates that the first two entries of array AKT_BAK,  in fortran column-  !
! major order, will have the same value of "1.0d-6" for grid 1,  whereas the  !
! next two entries will have the same value of "5.0d-6" for grid 2.           !
!                                                                             !
! In multiple levels of nesting and/or multiple connected domains  step-ups,  !
! "Ngrids" entries are expected for some of these parameters.  In such case,  !
! the order of the entries for a parameter is extremely important.  It  must  !
! follow the same order (1:Ngrids) as in the state variable declaration. The  !
! USER may follow the above guidelines for specifying his/her values.  These  !
! parameters are marked by "==" plural symbol after the KEYWORD.              !
!                                                                             !
!==============================================================================
!
! Switch to control the computation of floats trajectories within nested
! and/or multiple connected grids, [1:Ngrids].
!
     Lfloats == T

! Switch to control the printing of floats positions to standard output
! file, [1:Ngrids].
!
      Fprint == T

! Flag indicating re-start from previous solution. If FRREC = 0, a new
! NetCDF output file is created.

       FRREC == 0

! If applicable, input script file name containing biological floats behavior
! model parameters.

     FBIONAM =  behavior_larvae.in

! Number of floats to release in each nested grid.  These values are
! essential because the FLOATS structure in "mod_floats" is dynamically
! allocated using these values, [1:Ngrids].

     NFLOATS == 11000

! Initial floats locations for all grids:
!
!   G      Nested grid number
!   C      Initial horizontal coordinate type (0: grid units, 1: spherical)
!   T      Float trajectory type (1: Lagrangian, 2: isobaric, 3: Geopotential)
!   N      Number floats to be released at (Fx0,Fy0,Fz0)
!   Ft0    Float release time (days) after model initialization
!   Fx0    Initial float X-location (grid units or longitude)
!   Fy0    Initial float Y-location (grid units or latitude)
!   Fz0    Initial float Z-location (grid units or depth)
!   Fdt    Float cluster release time interval (days)
!   Fdx    Float cluster X-distribution parameter
!   Fdy    Float cluster Y-distribution parameter
!   Fdz    Float cluster Z-distribution parameter

POS = G, C, T, N,   Ft0,     Fx0,    Fy0,    Fz0,    Fdt,    Fdx,    Fdy,   Fdz
1 1 2 1 8771.998831 134.291781 7.068957 30.000000 1.000000 0.000000 0.000000 0.000000
1 1 2 1 8771.998831 134.296353 7.064350 30.000000 1.000000 0.000000 0.000000 0.000000
1 1 2 1 8771.998831 134.297049 7.064342 30.000000 1.000000 0.000000 0.000000 0.000000
1 1 2 1 8771.998831 134.298734 7.064128 30.000000 1.000000 0.000000 0.000000 0.000000
1 1 2 1 8771.998831 134.288036 7.050698 30.000000 1.000000 0.000000 0.000000 0.000000
1 1 2 1 8771.998831 134.299386 7.062486 30.000000 1.000000 0.000000 0.000000 0.000000
1 1 2 1 8771.998831 134.291862 7.053604 30.000000 1.000000 0.000000 0.000000 0.000000
1 1 2 1 8771.998831 134.288628 7.054078 30.000000 1.000000 0.000000 0.000000 0.000000
1 1 2 1 8771.998831 134.291181 7.051183 30.000000 1.000000 0.000000 0.000000 0.000000
1 1 2 1 8771.998831 134.298300 7.063498 30.000000 1.000000 0.000000 0.000000 0.000000
1 1 2 1 8771.998831 134.293757 7.065827 30.000000 1.000000 0.000000 0.000000 0.000000
1 1 2 1 8771.998831 134.292789 7.072861 30.000000 1.000000 0.000000 0.000000 0.000000
1 1 2 1 8771.998831 134.292821 7.069859 30.000000 1.000000 0.000000 0.000000 0.000000
1 1 2 1 8771.998831 134.300437 7.070763 30.000000 1.000000 0.000000 0.000000 0.000000
1 1 2 1 8771.998831 134.296958 7.068991 30.000000 1.000000 0.000000 0.000000 0.000000
1 1 2 1 8771.998831 134.288819 7.052944 30.000000 1.000000 0.000000 0.000000 0.000000
1 1 2 1 8771.998831 134.289247 7.051259 30.000000 1.000000 0.000000 0.000000 0.000000
1 1 2 1 8771.998831 134.301653 7.062399 30.000000 1.000000 0.000000 0.000000 0.000000
1 1 2 1 8771.998831 134.301827 7.063305 30.000000 1.000000 0.000000 0.000000 0.000000
1 1 2 1 8771.998831 134.300607 7.064776 30.000000 1.000000 0.000000 0.000000 0.000000
1 1 2 1 8771.998831 134.302456 7.067368 30.000000 1.000000 0.000000 0.000000 0.000000
1 1 2 1 8771.998831 134.287840 7.052010 30.000000 1.000000 0.000000 0.000000 0.000000
1 1 2 1 8771.998831 134.296604 7.057248 30.000000 1.000000 0.000000 0.000000 0.000000
1 1 2 1 8771.998831 134.290678 7.053303 30.000000 1.000000 0.000000 0.000000 0.000000
1 1 2 1 8771.998831 134.295229 7.061361 30.000000 1.000000 0.000000 0.000000 0.000000
1 1 2 1 8771.998831 134.290674 7.059473 30.000000 1.000000 0.000000 0.000000 0.000000
1 1 2 1 8771.998831 134.289597 7.056207 30.000000 1.000000 0.000000 0.000000 0.000000
1 1 2 1 8771.998831 134.294495 7.066852 30.000000 1.000000 0.000000 0.000000 0.000000
1 1 2 1 8771.998831 134.291656 7.067420 30.000000 1.000000 0.000000 0.000000 0.000000
1 1 2 1 8771.998831 134.297575 7.068168 30.000000 1.000000 0.000000 0.000000 0.000000
1 1 2 1 8771.998831 134.299698 7.069595 30.000000 1.000000 0.000000 0.000000 0.000000
1 1 2 1 8771.998831 134.290588 7.056621 30.000000 1.000000 0.000000 0.000000 0.000000
1 1 2 1 8771.998831 134.294064 7.054850 30.000000 1.000000 0.000000 0.000000 0.000000
1 1 2 1 8771.998831 134.301964 7.069051 30.000000 1.000000 0.000000 0.000000 0.000000
1 1 2 1 8771.998831 134.298109 7.070172 30.000000 1.000000 0.000000 0.000000 0.000000
1 1 2 1 8771.998831 134.296959 7.064790 30.000000 1.000000 0.000000 0.000000 0.000000
1 1 2 1 8771.998831 134.294127 7.054878 30.000000 1.000000 0.000000 0.000000 0.000000
1 1 2 1 8771.998831 134.300585 7.070569 30.000000 1.000000 0.000000 0.000000 0.000000
1 1 2 1 8771.998831 134.299918 7.069310 30.000000 1.000000 0.000000 0.000000 0.000000
1 1 2 1 8771.998831 134.291098 7.060136 30.000000 1.000000 0.000000 0.000000 0.000000
1 1 2 1 8771.998831 134.294448 7.067483 30.000000 1.000000 0.000000 0.000000 0.000000
1 1 2 1 8771.998831 134.292744 7.064558 30.000000 1.000000 0.000000 0.000000 0.000000
1 1 2 1 8771.998831 134.293583 7.069681 30.000000 1.000000 0.000000 0.000000 0.000000
1 1 2 1 8771.998831 134.292249 7.052644 30.000000 1.000000 0.000000 0.000000 0.000000
1 1 2 1 8771.998831 134.292185 7.058801 30.000000 1.000000 0.000000 0.000000 0.000000
1 1 2 1 8771.998831 134.299749 7.064379 30.000000 1.000000 0.000000 0.000000 0.000000
1 1 2 1 8771.998831 134.289762 7.049075 30.000000 1.000000 0.000000 0.000000 0.000000
1 1 2 1 8771.998831 134.292177 7.052721 30.000000 1.000000 0.000000 0.000000 0.000000
1 1 2 1 8771.998831 134.292817 7.064431 30.000000 1.000000 0.000000 0.000000 0.000000
1 1 2 1 8771.998831 134.293630 7.068815 30.000000 1.000000 0.000000 0.000000 0.000000
1 1 2 1 8771.998831 134.295531 7.057554 30.000000 1.000000 0.000000 0.000000 0.000000
1 1 2 1 8771.998831 134.295366 7.071863 30.000000 1.000000 0.000000 0.000000 0.000000
1 1 2 1 8771.998831 134.293703 7.072694 30.000000 1.000000 0.000000 0.000000 0.000000
1 1 2 1 8771.998831 134.297548 7.064591 30.000000 1.000000 0.000000 0.000000 0.000000
1 1 2 1 8771.998831 134.292781 7.072224 30.000000 1.000000 0.000000 0.000000 0.000000
1 1 2 1 8771.998831 134.293787 7.063241 30.000000 1.000000 0.000000 0.000000 0.000000
1 1 2 1 8771.998831 134.293645 7.070536 30.000000 1.000000 0.000000 0.000000 0.000000
1 1 2 1 8771.998831 134.301835 7.068106 30.000000 1.000000 0.000000 0.000000 0.000000
1 1 2 1 8771.998831 134.297537 7.067660 30.000000 1.000000 0.000000 0.000000 0.000000
1 1 2 1 8771.998831 134.294758 7.068532 30.000000 1.000000 0.000000 0.000000 0.000000
1 1 2 1 8771.998831 134.293402 7.052382 30.000000 1.000000 0.000000 0.000000 0.000000
1 1 2 1 8771.998831 134.295984 7.067499 30.000000 1.000000 0.000000 0.000000 0.000000
1 1 2 1 8771.998831 134.288274 7.052186 30.000000 1.000000 0.000000 0.000000 0.000000
1 1 2 1 8771.998831 134.292920 7.062486 30.000000 1.000000 0.000000 0.000000 0.000000
1 1 2 1 8771.998831 134.296461 7.068190 30.000000 1.000000 0.000000 0.000000 0.000000
1 1 2 1 8771.998831 134.297883 7.067928 30.000000 1.000000 0.000000 0.000000 0.000000
1 1 2 1 8771.998831 134.294265 7.070238 30.000000 1.000000 0.000000 0.000000 0.000000
1 1 2 1 8771.998831 134.300495 7.068397 30.000000 1.000000 0.000000 0.000000 0.000000
1 1 2 1 8771.998831 134.293279 7.064075 30.000000 1.000000 0.000000 0.000000 0.000000
1 1 2 1 8771.998831 134.293608 7.051852 30.000000 1.000000 0.000000 0.000000 0.000000
1 1 2 1 8771.998831 134.296973 7.064761 30.000000 1.000000 0.000000 0.000000 0.000000
1 1 2 1 8771.998831 134.295685 7.055322 30.000000 1.000000 0.000000 0.000000 0.000000
1 1 2 1 8771.998831 134.288964 7.051757 30.000000 1.000000 0.000000 0.000000 0.000000
1 1 2 1 8771.998831 134.294331 7.068697 30.000000 1.000000 0.000000 0.000000 0.000000
1 1 2 1 8771.998831 134.300565 7.061923 30.000000 1.000000 0.000000 0.000000 0.000000
1 1 2 1 8771.998831 134.289762 7.050540 30.000000 1.000000 0.000000 0.000000 0.000000
1 1 2 1 8771.998831 134.301325 7.062650 30.000000 1.000000 0.000000 0.000000 0.000000
1 1 2 1 8771.998831 134.287963 7.052320 30.000000 1.000000 0.000000 0.000000 0.000000
1 1 2 1 8771.998831 134.294796 7.072545 30.000000 1.000000 0.000000 0.000000 0.000000
1 1 2 1 8771.998831 134.295493 7.056163 30.000000 1.000000 0.000000 0.000000 0.000000
1 1 2 1 8771.998831 134.292748 7.053090 30.000000 1.000000 0.000000 0.000000 0.000000
1 1 2 1 8771.998831 134.294454 7.070553 30.000000 1.000000 0.000000 0.000000 0.000000
1 1 2 1 8771.998831 134.299868 7.063968 30.000000 1.000000 0.000000 0.000000 0.000000
1 1 2 1 8771.998831 134.294178 7.071073 30.000000 1.000000 0.000000 0.000000 0.000000
1 1 2 1 8771.998831 134.289959 7.051171 30.000000 1.000000 0.000000 0.000000 0.000000
1 1 2 1 8771.998831 134.298040 7.059781 30.000000 1.000000 0.000000 0.000000 0.000000
1 1 2 1 8771.998831 134.289890 7.054226 30.000000 1.000000 0.000000 0.000000 0.000000
1 1 2 1 8771.998831 134.291279 7.059141 30.000000 1.000000 0.000000 0.000000 0.000000
1 1 2 1 8771.998831 134.291313 7.059526 30.000000 1.000000 0.000000 0.000000 0.000000
1 1 2 1 8771.998831 134.293973 7.069772 30.000000 1.000000 0.000000 0.000000 0.000000
1 1 2 1 8771.998831 134.294312 7.067724 30.000000 1.000000 0.000000 0.000000 0.000000
1 1 2 1 8771.998831 134.297959 7.065439 30.000000 1.000000 0.000000 0.000000 0.000000
1 1 2 1 8771.998831 134.298468 7.069051 30.000000 1.000000 0.000000 0.000000 0.000000
1 1 2 1 8771.998831 134.297085 7.056488 30.000000 1.000000 0.000000 0.000000 0.000000
1 1 2 1 8771.998831 134.302535 7.065695 30.000000 1.000000 0.000000 0.000000 0.000000
1 1 2 1 8771.998831 134.293390 7.062856 30.000000 1.000000 0.000000 0.000000 0.000000
1 1 2 1 8771.998831 134.297196 7.057519 30.000000 1.000000 0.000000 0.000000 0.000000
1 1 2 1 8771.998831 134.293705 7.072602 30.000000 1.000000 0.000000 0.000000 0.000000
1 1 2 1 8771.998831 134.293234 7.069003 30.000000 1.000000 0.000000 0.000000 0.000000
1 1 2 1 8771.998831 134.296017 7.071379 30.000000 1.000000 0.000000 0.000000 0.000000
1 1 2 1 8771.998831 134.293478 7.065913 30.000000 1.000000 0.000000 0.000000 0.000000
1 1 2 1 8771.998831 134.295578 7.071823 30.000000 1.000000 0.000000 0.000000 0.000000
1 1 2 1 8771.998831 134.290990 7.049049 30.000000 1.000000 0.000000 0.000000 0.000000
1 1 2 1 8771.998831 134.291742 7.052015 30.000000 1.000000 0.000000 0.000000 0.000000
1 1 2 1 8771.998831 134.294363 7.072275 30.000000 1.000000 0.000000 0.000000 0.000000
1 1 2 1 8771.998831 134.297270 7.059583 30.000000 1.000000 0.000000 0.000000 0.000000
1 1 2 1 8771.998831 134.293302 7.052041 30.000000 1.000000 0.000000 0.000000 0.000000
1 1 2 1 8771.998831 134.294012 7.069013 30.000000 1.000000 0.000000 0.000000 0.000000
1 1 2 1 8771.998831 134.296431 7.058674 30.000000 1.000000 0.000000 0.000000 0.000000
1 1 2 1 8771.998831 134.296295 7.065113 30.000000 1.000000 0.000000 0.000000 0.000000
1 1 2 1 8771.998831 134.293393 7.073827 30.000000 1.000000 0.000000 0.000000 0.000000
1 1 2 1 8771.998831 134.291781 7.059668 30.000000 1.000000 0.000000 0.000000 0.000000
1 1 2 1 8771.998831 134.297579 7.069612 30.000000 1.000000 0.000000 0.000000 0.000000
1 1 2 1 8771.998831 134.293988 7.061191 30.000000 1.000000 0.000000 0.000000 0.000000
1 1 2 1 8771.998831 134.289134 7.055457 30.000000 1.000000 0.000000 0.000000 0.000000
1 1 2 1 8771.998831 134.291119 7.058459 30.000000 1.000000 0.000000 0.000000 0.000000
1 1 2 1 8771.998831 134.289474 7.050255 30.000000 1.000000 0.000000 0.000000 0.000000
1 1 2 1 8771.998831 134.292650 7.053574 30.000000 1.000000 0.000000 0.000000 0.000000
1 1 2 1 8771.998831 134.297363 7.059768 30.000000 1.000000 0.000000 0.000000 0.000000
1 1 2 1 8771.998831 134.293567 7.055341 30.000000 1.000000 0.000000 0.000000 0.000000
1 1 2 1 8771.998831 134.294016 7.054963 30.000000 1.000000 0.000000 0.000000 0.000000
1 1 2 1 8771.998831 134.294246 7.067414 30.000000 1.000000 0.000000 0.000000 0.000000
1 1 2 1 8771.998831 134.296968 7.070693 30.000000 1.000000 0.000000 0.000000 0.000000
1 1 2 1 8771.998831 134.296896 7.067823 30.000000 1.000000 0.000000 0.000000 0.000000
1 1 2 1 8771.998831 134.297998 7.068404 30.000000 1.000000 0.000000 0.000000 0.000000
1 1 2 1 8771.998831 134.294525 7.068261 30.000000 1.000000 0.000000 0.000000 0.000000
1 1 2 1 8771.998831 134.301330 7.068327 30.000000 1.000000 0.000000 0.000000 0.000000
1 1 2 1 8771.998831 134.292444 7.062412 30.000000 1.000000 0.000000 0.000000 0.000000
1 1 2 1 8771.998831 134.294906 7.072877 30.000000 1.000000 0.000000 0.000000 0.000000
1 1 2 1 8771.998831 134.288270 7.053465 30.000000 1.000000 0.000000 0.000000 0.000000
1 1 2 1 8771.998831 134.296904 7.069460 30.000000 1.000000 0.000000 0.000000 0.000000
1 1 2 1 8771.998831 134.295459 7.063348 30.000000 1.000000 0.000000 0.000000 0.000000
1 1 2 1 8771.998831 134.290544 7.051343 30.000000 1.000000 0.000000 0.000000 0.000000
1 1 2 1 8771.998831 134.297257 7.058666 30.000000 1.000000 0.000000 0.000000 0.000000
1 1 2 1 8771.998831 134.293332 7.070728 30.000000 1.000000 0.000000 0.000000 0.000000
1 1 2 1 8771.998831 134.294313 7.051966 30.000000 1.000000 0.000000 0.000000 0.000000
1 1 2 1 8771.998831 134.294416 7.063981 30.000000 1.000000 0.000000 0.000000 0.000000
1 1 2 1 8771.998831 134.300337 7.062563 30.000000 1.000000 0.000000 0.000000 0.000000
1 1 2 1 8771.998831 134.296049 7.069687 30.000000 1.000000 0.000000 0.000000 0.000000
1 1 2 1 8771.998831 134.301239 7.071361 30.000000 1.000000 0.000000 0.000000 0.000000
1 1 2 1 8771.998831 134.288924 7.050374 30.000000 1.000000 0.000000 0.000000 0.000000
1 1 2 1 8771.998831 134.301966 7.071343 30.000000 1.000000 0.000000 0.000000 0.000000
1 1 2 1 8771.998831 134.298802 7.069370 30.000000 1.000000 0.000000 0.000000 0.000000
1 1 2 1 8771.998831 134.292613 7.053281 30.000000 1.000000 0.000000 0.000000 0.000000
1 1 2 1 8771.998831 134.290048 7.048409 30.000000 1.000000 0.000000 0.000000 0.000000
1 1 2 1 8771.998831 134.291599 7.061323 30.000000 1.000000 0.000000 0.000000 0.000000
1 1 2 1 8771.998831 134.302332 7.069770 30.000000 1.000000 0.000000 0.000000 0.000000
1 1 2 1 8771.998831 134.298969 7.068319 30.000000 1.000000 0.000000 0.000000 0.000000
1 1 2 1 8771.998831 134.294205 7.053943 30.000000 1.000000 0.000000 0.000000 0.000000
1 1 2 1 8771.998831 134.298173 7.058728 30.000000 1.000000 0.000000 0.000000 0.000000
1 1 2 1 8771.998831 134.297655 7.065324 30.000000 1.000000 0.000000 0.000000 0.000000
1 1 2 1 8771.998831 134.297688 7.066326 30.000000 1.000000 0.000000 0.000000 0.000000
1 1 2 1 8771.998831 134.300588 7.061368 30.000000 1.000000 0.000000 0.000000 0.000000
1 1 2 1 8771.998831 134.299662 7.068188 30.000000 1.000000 0.000000 0.000000 0.000000
1 1 2 1 8771.998831 134.296807 7.069348 30.000000 1.000000 0.000000 0.000000 0.000000
1 1 2 1 8771.998831 134.294376 7.064604 30.000000 1.000000 0.000000 0.000000 0.000000
1 1 2 1 8771.998831 134.292951 7.066611 30.000000 1.000000 0.000000 0.000000 0.000000
1 1 2 1 8771.998831 134.297349 7.058050 30.000000 1.000000 0.000000 0.000000 0.000000
1 1 2 1 8771.998831 134.295540 7.072064 30.000000 1.000000 0.000000 0.000000 0.000000
1 1 2 1 8771.998831 134.293129 7.062785 30.000000 1.000000 0.000000 0.000000 0.000000
1 1 2 1 8771.998831 134.289077 7.052167 30.000000 1.000000 0.000000 0.000000 0.000000
1 1 2 1 8771.998831 134.298651 7.058930 30.000000 1.000000 0.000000 0.000000 0.000000
1 1 2 1 8771.998831 134.293651 7.061129 30.000000 1.000000 0.000000 0.000000 0.000000
1 1 2 1 8771.998831 134.288732 7.053594 30.000000 1.000000 0.000000 0.000000 0.000000
1 1 2 1 8771.998831 134.294869 7.067921 30.000000 1.000000 0.000000 0.000000 0.000000
1 1 2 1 8771.998831 134.291241 7.060311 30.000000 1.000000 0.000000 0.000000 0.000000
1 1 2 1 8771.998831 134.299106 7.064662 30.000000 1.000000 0.000000 0.000000 0.000000
1 1 2 1 8771.998831 134.292314 7.051867 30.000000 1.000000 0.000000 0.000000 0.000000
1 1 2 1 8771.998831 134.297318 7.068309 30.000000 1.000000 0.000000 0.000000 0.000000
1 1 2 1 8771.998831 134.301214 7.068337 30.000000 1.000000 0.000000 0.000000 0.000000
1 1 2 1 8771.998831 134.292586 7.073271 30.000000 1.000000 0.000000 0.000000 0.000000
1 1 2 1 8771.998831 134.295992 7.059166 30.000000 1.000000 0.000000 0.000000 0.000000
1 1 2 1 8771.998831 134.293451 7.070294 30.000000 1.000000 0.000000 0.000000 0.000000
1 1 2 1 8771.998831 134.297842 7.068004 30.000000 1.000000 0.000000 0.000000 0.000000
1 1 2 1 8771.998831 134.293293 7.061635 30.000000 1.000000 0.000000 0.000000 0.000000
1 1 2 1 8771.998831 134.291255 7.060604 30.000000 1.000000 0.000000 0.000000 0.000000
1 1 2 1 8771.998831 134.300842 7.071435 30.000000 1.000000 0.000000 0.000000 0.000000
1 1 2 1 8771.998831 134.295612 7.068796 30.000000 1.000000 0.000000 0.000000 0.000000
1 1 2 1 8771.998831 134.299379 7.067732 30.000000 1.000000 0.000000 0.000000 0.000000
1 1 2 1 8771.998831 134.299989 7.064881 30.000000 1.000000 0.000000 0.000000 0.000000
1 1 2 1 8771.998831 134.292288 7.058756 30.000000 1.000000 0.000000 0.000000 0.000000
1 1 2 1 8771.998831 134.296102 7.067065 30.000000 1.000000 0.000000 0.000000 0.000000
1 1 2 1 8771.998831 134.298533 7.069966 30.000000 1.000000 0.000000 0.000000 0.000000
1 1 2 1 8771.998831 134.295919 7.058056 30.000000 1.000000 0.000000 0.000000 0.000000
1 1 2 1 8771.998831 134.296602 7.059952 30.000000 1.000000 0.000000 0.000000 0.000000
1 1 2 1 8771.998831 134.300535 7.063314 30.000000 1.000000 0.000000 0.000000 0.000000
1 1 2 1 8771.998831 134.296842 7.070229 30.000000 1.000000 0.000000 0.000000 0.000000
1 1 2 1 8771.998831 134.297095 7.060492 30.000000 1.000000 0.000000 0.000000 0.000000
1 1 2 1 8771.998831 134.292459 7.053304 30.000000 1.000000 0.000000 0.000000 0.000000
1 1 2 1 8771.998831 134.289815 7.056579 30.000000 1.000000 0.000000 0.000000 0.000000
1 1 2 1 8771.998831 134.301995 7.064456 30.000000 1.000000 0.000000 0.000000 0.000000
1 1 2 1 8771.998831 134.294999 7.056777 30.000000 1.000000 0.000000 0.000000 0.000000
1 1 2 1 8771.998831 134.291591 7.063063 30.000000 1.000000 0.000000 0.000000 0.000000
1 1 2 1 8771.998831 134.300270 7.064742 30.000000 1.000000 0.000000 0.000000 0.000000
1 1 2 1 8771.998831 134.292712 7.068010 30.000000 1.000000 0.000000 0.000000 0.000000
1 1 2 1 8771.998831 134.292167 7.069609 30.000000 1.000000 0.000000 0.000000 0.000000
1 1 2 1 8771.998831 134.294988 7.068340 30.000000 1.000000 0.000000 0.000000 0.000000
1 1 2 1 8771.998831 134.291928 7.059686 30.000000 1.000000 0.000000 0.000000 0.000000
1 1 2 1 8771.998831 134.293407 7.055229 30.000000 1.000000 0.000000 0.000000 0.000000
1 1 2 1 8771.998831 134.298135 7.068372 30.000000 1.000000 0.000000 0.000000 0.000000
1 1 2 1 8771.998831 134.302299 7.067531 30.000000 1.000000 0.000000 0.000000 0.000000
1 1 2 1 8771.998831 134.297024 7.064048 30.000000 1.000000 0.000000 0.000000 0.000000
1 1 2 1 8771.998831 134.295357 7.061090 30.000000 1.000000 0.000000 0.000000 0.000000
1 1 2 1 8771.998831 134.292830 7.070699 30.000000 1.000000 0.000000 0.000000 0.000000
1 1 2 1 8771.998831 134.294526 7.054047 30.000000 1.000000 0.000000 0.000000 0.000000
1 1 2 1 8771.998831 134.288924 7.050054 30.000000 1.000000 0.000000 0.000000 0.000000
1 1 2 1 8771.998831 134.291044 7.050710 30.000000 1.000000 0.000000 0.000000 0.000000
1 1 2 1 8771.998831 134.290356 7.048631 30.000000 1.000000 0.000000 0.000000 0.000000
1 1 2 1 8771.998831 134.298960 7.059061 30.000000 1.000000 0.000000 0.000000 0.000000
1 1 2 1 8771.998831 134.296830 7.066665 30.000000 1.000000 0.000000 0.000000 0.000000
1 1 2 1 8771.998831 134.289239 7.051070 30.000000 1.000000 0.000000 0.000000 0.000000
1 1 2 1 8771.998831 134.293333 7.054470 30.000000 1.000000 0.000000 0.000000 0.000000
1 1 2 1 8771.998831 134.288227 7.050326 30.000000 1.000000 0.000000 0.000000 0.000000
1 1 2 1 8771.998831 134.292777 7.065222 30.000000 1.000000 0.000000 0.000000 0.000000
1 1 2 1 8771.998831 134.290598 7.051900 30.000000 1.000000 0.000000 0.000000 0.000000
1 1 2 1 8771.998831 134.296680 7.070458 30.000000 1.000000 0.000000 0.000000 0.000000
1 1 2 1 8771.998831 134.295236 7.070495 30.000000 1.000000 0.000000 0.000000 0.000000
1 1 2 1 8771.998831 134.293710 7.050980 30.000000 1.000000 0.000000 0.000000 0.000000
1 1 2 1 8771.998831 134.290899 7.058625 30.000000 1.000000 0.000000 0.000000 0.000000
1 1 2 1 8771.998831 134.294521 7.072952 30.000000 1.000000 0.000000 0.000000 0.000000
1 1 2 1 8771.998831 134.291196 7.057333 30.000000 1.000000 0.000000 0.000000 0.000000
1 1 2 1 8771.998831 134.292980 7.068982 30.000000 1.000000 0.000000 0.000000 0.000000
1 1 2 1 8771.998831 134.292026 7.061393 30.000000 1.000000 0.000000 0.000000 0.000000
1 1 2 1 8771.998831 134.292936 7.066455 30.000000 1.000000 0.000000 0.000000 0.000000
1 1 2 1 8771.998831 134.288029 7.051274 30.000000 1.000000 0.000000 0.000000 0.000000
1 1 2 1 8771.998831 134.290535 7.056836 30.000000 1.000000 0.000000 0.000000 0.000000
1 1 2 1 8771.998831 134.290398 7.050651 30.000000 1.000000 0.000000 0.000000 0.000000
1 1 2 1 8771.998831 134.292292 7.069179 30.000000 1.000000 0.000000 0.000000 0.000000
1 1 2 1 8771.998831 134.290930 7.059830 30.000000 1.000000 0.000000 0.000000 0.000000
1 1 2 1 8771.998831 134.295361 7.072239 30.000000 1.000000 0.000000 0.000000 0.000000
1 1 2 1 8771.998831 134.290913 7.053309 30.000000 1.000000 0.000000 0.000000 0.000000
1 1 2 1 8771.998831 134.292563 7.050350 30.000000 1.000000 0.000000 0.000000 0.000000
1 1 2 1 8771.998831 134.297907 7.067926 30.000000 1.000000 0.000000 0.000000 0.000000
1 1 2 1 8771.998831 134.295566 7.053409 30.000000 1.000000 0.000000 0.000000 0.000000
1 1 2 1 8771.998831 134.295219 7.060768 30.000000 1.000000 0.000000 0.000000 0.000000
1 1 2 1 8771.998831 134.289909 7.052027 30.000000 1.000000 0.000000 0.000000 0.000000
1 1 2 1 8771.998831 134.296438 7.068197 30.000000 1.000000 0.000000 0.000000 0.000000
1 1 2 1 8771.998831 134.296430 7.070016 30.000000 1.000000 0.000000 0.000000 0.000000
1 1 2 1 8771.998831 134.289169 7.049481 30.000000 1.000000 0.000000 0.000000 0.000000
1 1 2 1 8771.998831 134.296364 7.067132 30.000000 1.000000 0.000000 0.000000 0.000000
1 1 2 1 8771.998831 134.293607 7.053347 30.000000 1.000000 0.000000 0.000000 0.000000
1 1 2 1 8771.998831 134.290844 7.052030 30.000000 1.000000 0.000000 0.000000 0.000000
1 1 2 1 8771.998831 134.292528 7.064922 30.000000 1.000000 0.000000 0.000000 0.000000
1 1 2 1 8771.998831 134.295813 7.059296 30.000000 1.000000 0.000000 0.000000 0.000000
1 1 2 1 8771.998831 134.289535 7.053166 30.000000 1.000000 0.000000 0.000000 0.000000
1 1 2 1 8771.998831 134.294833 7.060856 30.000000 1.000000 0.000000 0.000000 0.000000
1 1 2 1 8771.998831 134.294713 7.072034 30.000000 1.000000 0.000000 0.000000 0.000000
1 1 2 1 8771.998831 134.291327 7.062569 30.000000 1.000000 0.000000 0.000000 0.000000
1 1 2 1 8771.998831 134.294095 7.051022 30.000000 1.000000 0.000000 0.000000 0.000000
1 1 2 1 8771.998831 134.292676 7.066753 30.000000 1.000000 0.000000 0.000000 0.000000
1 1 2 1 8771.998831 134.294587 7.053240 30.000000 1.000000 0.000000 0.000000 0.000000
1 1 2 1 8771.998831 134.301759 7.071544 30.000000 1.000000 0.000000 0.000000 0.000000
1 1 2 1 8771.998831 134.292247 7.063576 30.000000 1.000000 0.000000 0.000000 0.000000
1 1 2 1 8771.998831 134.293934 7.066687 30.000000 1.000000 0.000000 0.000000 0.000000
1 1 2 1 8771.998831 134.293452 7.055252 30.000000 1.000000 0.000000 0.000000 0.000000
1 1 2 1 8771.998831 134.293921 7.055113 30.000000 1.000000 0.000000 0.000000 0.000000
1 1 2 1 8771.998831 134.295462 7.066151 30.000000 1.000000 0.000000 0.000000 0.000000
1 1 2 1 8771.998831 134.298170 7.058068 30.000000 1.000000 0.000000 0.000000 0.000000
1 1 2 1 8771.998831 134.298715 7.068853 30.000000 1.000000 0.000000 0.000000 0.000000
1 1 2 1 8771.998831 134.295329 7.063059 30.000000 1.000000 0.000000 0.000000 0.000000
1 1 2 1 8771.998831 134.299884 7.067894 30.000000 1.000000 0.000000 0.000000 0.000000
1 1 2 1 8771.998831 134.289065 7.050994 30.000000 1.000000 0.000000 0.000000 0.000000
1 1 2 1 8771.998831 134.300710 7.069596 30.000000 1.000000 0.000000 0.000000 0.000000
1 1 2 1 8771.998831 134.300782 7.071083 30.000000 1.000000 0.000000 0.000000 0.000000
1 1 2 1 8771.998831 134.293420 7.069694 30.000000 1.000000 0.000000 0.000000 0.000000
1 1 2 1 8771.998831 134.293278 7.060726 30.000000 1.000000 0.000000 0.000000 0.000000
1 1 2 1 8771.998831 134.292338 7.070360 30.000000 1.000000 0.000000 0.000000 0.000000
1 1 2 1 8771.998831 134.292544 7.050539 30.000000 1.000000 0.000000 0.000000 0.000000
1 1 2 1 8771.998831 134.293571 7.059807 30.000000 1.000000 0.000000 0.000000 0.000000
1 1 2 1 8771.998831 134.295053 7.067981 30.000000 1.000000 0.000000 0.000000 0.000000
1 1 2 1 8771.998831 134.302056 7.070725 30.000000 1.000000 0.000000 0.000000 0.000000
1 1 2 1 8771.998831 134.288779 7.051158 30.000000 1.000000 0.000000 0.000000 0.000000
1 1 2 1 8771.998831 134.300133 7.070362 30.000000 1.000000 0.000000 0.000000 0.000000
1 1 2 1 8771.998831 134.295688 7.059883 30.000000 1.000000 0.000000 0.000000 0.000000
1 1 2 1 8771.998831 134.293712 7.053612 30.000000 1.000000 0.000000 0.000000 0.000000
1 1 2 1 8771.998831 134.295606 7.058912 30.000000 1.000000 0.000000 0.000000 0.000000
1 1 2 1 8771.998831 134.300705 7.062974 30.000000 1.000000 0.000000 0.000000 0.000000
1 1 2 1 8771.998831 134.291828 7.061887 30.000000 1.000000 0.000000 0.000000 0.000000
1 1 2 1 8771.998831 134.298619 7.066578 30.000000 1.000000 0.000000 0.000000 0.000000
1 1 2 1 8771.998831 134.289302 7.051924 30.000000 1.000000 0.000000 0.000000 0.000000
1 1 2 1 8771.998831 134.295206 7.061943 30.000000 1.000000 0.000000 0.000000 0.000000
1 1 2 1 8771.998831 134.298350 7.068690 30.000000 1.000000 0.000000 0.000000 0.000000
1 1 2 1 8771.998831 134.295198 7.054788 30.000000 1.000000 0.000000 0.000000 0.000000
1 1 2 1 8771.998831 134.291237 7.049451 30.000000 1.000000 0.000000 0.000000 0.000000
1 1 2 1 8771.998831 134.291590 7.066040 30.000000 1.000000 0.000000 0.000000 0.000000
1 1 2 1 8771.998831 134.292695 7.068915 30.000000 1.000000 0.000000 0.000000 0.000000
1 1 2 1 8771.998831 134.296265 7.069440 30.000000 1.000000 0.000000 0.000000 0.000000
1 1 2 1 8771.998831 134.294549 7.070526 30.000000 1.000000 0.000000 0.000000 0.000000
1 1 2 1 8771.998831 134.296817 7.056899 30.000000 1.000000 0.000000 0.000000 0.000000
1 1 2 1 8771.998831 134.292791 7.071688 30.000000 1.000000 0.000000 0.000000 0.000000
1 1 2 1 8771.998831 134.295076 7.062503 30.000000 1.000000 0.000000 0.000000 0.000000
1 1 2 1 8771.998831 134.291899 7.068538 30.000000 1.000000 0.000000 0.000000 0.000000
1 1 2 1 8771.998831 134.298805 7.066812 30.000000 1.000000 0.000000 0.000000 0.000000
1 1 2 1 8771.998831 134.293188 7.067226 30.000000 1.000000 0.000000 0.000000 0.000000
1 1 2 1 8771.998831 134.292587 7.069492 30.000000 1.000000 0.000000 0.000000 0.000000
1 1 2 1 8771.998831 134.291146 7.062443 30.000000 1.000000 0.000000 0.000000 0.000000
1 1 2 1 8771.998831 134.291614 7.062808 30.000000 1.000000 0.000000 0.000000 0.000000
1 1 2 1 8771.998831 134.300212 7.068600 30.000000 1.000000 0.000000 0.000000 0.000000
1 1 2 1 8771.998831 134.299861 7.067554 30.000000 1.000000 0.000000 0.000000 0.000000
1 1 2 1 8771.998831 134.295748 7.060497 30.000000 1.000000 0.000000 0.000000 0.000000
1 1 2 1 8771.998831 134.290691 7.059967 30.000000 1.000000 0.000000 0.000000 0.000000
1 1 2 1 8771.998831 134.292534 7.067796 30.000000 1.000000 0.000000 0.000000 0.000000
1 1 2 1 8771.998831 134.296491 7.067074 30.000000 1.000000 0.000000 0.000000 0.000000
1 1 2 1 8771.998831 134.297205 7.064172 30.000000 1.000000 0.000000 0.000000 0.000000
1 1 2 1 8771.998831 134.294530 7.072491 30.000000 1.000000 0.000000 0.000000 0.000000
1 1 2 1 8771.998831 134.294668 7.055627 30.000000 1.000000 0.000000 0.000000 0.000000
1 1 2 1 8771.998831 134.300067 7.062860 30.000000 1.000000 0.000000 0.000000 0.000000
1 1 2 1 8771.998831 134.296114 7.055549 30.000000 1.000000 0.000000 0.000000 0.000000
1 1 2 1 8771.998831 134.297417 7.058989 30.000000 1.000000 0.000000 0.000000 0.000000
1 1 2 1 8771.998831 134.296237 7.055856 30.000000 1.000000 0.000000 0.000000 0.000000
1 1 2 1 8771.998831 134.296477 7.066596 30.000000 1.000000 0.000000 0.000000 0.000000
1 1 2 1 8771.998831 134.294159 7.071919 30.000000 1.000000 0.000000 0.000000 0.000000
1 1 2 1 8771.998831 134.289797 7.049027 30.000000 1.000000 0.000000 0.000000 0.000000
1 1 2 1 8771.998831 134.298566 7.064272 30.000000 1.000000 0.000000 0.000000 0.000000
1 1 2 1 8771.998831 134.296448 7.060375 30.000000 1.000000 0.000000 0.000000 0.000000
1 1 2 1 8771.998831 134.299949 7.062427 30.000000 1.000000 0.000000 0.000000 0.000000
1 1 2 1 8771.998831 134.292592 7.060749 30.000000 1.000000 0.000000 0.000000 0.000000
1 1 2 1 8771.998831 134.295198 7.064744 30.000000 1.000000 0.000000 0.000000 0.000000
1 1 2 1 8771.998831 134.295669 7.071782 30.000000 1.000000 0.000000 0.000000 0.000000
1 1 2 1 8771.998831 134.294943 7.067934 30.000000 1.000000 0.000000 0.000000 0.000000
1 1 2 1 8771.998831 134.301679 7.067660 30.000000 1.000000 0.000000 0.000000 0.000000
1 1 2 1 8771.998831 134.294922 7.052679 30.000000 1.000000 0.000000 0.000000 0.000000
1 1 2 1 8771.998831 134.302030 7.063439 30.000000 1.000000 0.000000 0.000000 0.000000
1 1 2 1 8771.998831 134.296810 7.070459 30.000000 1.000000 0.000000 0.000000 0.000000
1 1 2 1 8771.998831 134.295883 7.054510 30.000000 1.000000 0.000000 0.000000 0.000000
1 1 2 1 8771.998831 134.299975 7.063800 30.000000 1.000000 0.000000 0.000000 0.000000
1 1 2 1 8771.998831 134.295770 7.070198 30.000000 1.000000 0.000000 0.000000 0.000000
1 1 2 1 8771.998831 134.301997 7.071381 30.000000 1.000000 0.000000 0.000000 0.000000
1 1 2 1 8771.998831 134.290564 7.056949 30.000000 1.000000 0.000000 0.000000 0.000000
1 1 2 1 8771.998831 134.291710 7.051573 30.000000 1.000000 0.000000 0.000000 0.000000
1 1 2 1 8771.998831 134.293177 7.063917 30.000000 1.000000 0.000000 0.000000 0.000000
1 1 2 1 8771.998831 134.296564 7.071227 30.000000 1.000000 0.000000 0.000000 0.000000
1 1 2 1 8771.998831 134.294642 7.069119 30.000000 1.000000 0.000000 0.000000 0.000000
1 1 2 1 8771.998831 134.289348 7.050603 30.000000 1.000000 0.000000 0.000000 0.000000
1 1 2 1 8771.998831 134.298076 7.067594 30.000000 1.000000 0.000000 0.000000 0.000000
1 1 2 1 8771.998831 134.302658 7.070465 30.000000 1.000000 0.000000 0.000000 0.000000
1 1 2 1 8771.998831 134.291511 7.067051 30.000000 1.000000 0.000000 0.000000 0.000000
1 1 2 1 8771.998831 134.292821 7.050765 30.000000 1.000000 0.000000 0.000000 0.000000
1 1 2 1 8771.998831 134.289958 7.048623 30.000000 1.000000 0.000000 0.000000 0.000000
1 1 2 1 8771.998831 134.293640 7.051199 30.000000 1.000000 0.000000 0.000000 0.000000
1 1 2 1 8771.998831 134.292265 7.062663 30.000000 1.000000 0.000000 0.000000 0.000000
1 1 2 1 8771.998831 134.291110 7.060020 30.000000 1.000000 0.000000 0.000000 0.000000
1 1 2 1 8771.998831 134.290081 7.056359 30.000000 1.000000 0.000000 0.000000 0.000000
1 1 2 1 8771.998831 134.290702 7.058675 30.000000 1.000000 0.000000 0.000000 0.000000
1 1 2 1 8771.998831 134.290502 7.058147 30.000000 1.000000 0.000000 0.000000 0.000000
1 1 2 1 8771.998831 134.301214 7.071002 30.000000 1.000000 0.000000 0.000000 0.000000
1 1 2 1 8771.998831 134.293930 7.054884 30.000000 1.000000 0.000000 0.000000 0.000000
1 1 2 1 8771.998831 134.298110 7.069341 30.000000 1.000000 0.000000 0.000000 0.000000
1 1 2 1 8771.998831 134.297920 7.066546 30.000000 1.000000 0.000000 0.000000 0.000000
1 1 2 1 8771.998831 134.292827 7.050459 30.000000 1.000000 0.000000 0.000000 0.000000
1 1 2 1 8771.998831 134.291872 7.061486 30.000000 1.000000 0.000000 0.000000 0.000000
1 1 2 1 8771.998831 134.293677 7.064265 30.000000 1.000000 0.000000 0.000000 0.000000
1 1 2 1 8771.998831 134.290575 7.055441 30.000000 1.000000 0.000000 0.000000 0.000000
1 1 2 1 8771.998831 134.294279 7.054530 30.000000 1.000000 0.000000 0.000000 0.000000
1 1 2 1 8771.998831 134.290514 7.054999 30.000000 1.000000 0.000000 0.000000 0.000000
1 1 2 1 8771.998831 134.298370 7.065305 30.000000 1.000000 0.000000 0.000000 0.000000
1 1 2 1 8771.998831 134.289758 7.051811 30.000000 1.000000 0.000000 0.000000 0.000000
1 1 2 1 8771.998831 134.291836 7.060428 30.000000 1.000000 0.000000 0.000000 0.000000
1 1 2 1 8771.998831 134.292580 7.063662 30.000000 1.000000 0.000000 0.000000 0.000000
1 1 2 1 8771.998831 134.299156 7.065720 30.000000 1.000000 0.000000 0.000000 0.000000
1 1 2 1 8771.998831 134.296577 7.057862 30.000000 1.000000 0.000000 0.000000 0.000000
1 1 2 1 8771.998831 134.291678 7.061556 30.000000 1.000000 0.000000 0.000000 0.000000
1 1 2 1 8771.998831 134.301306 7.064610 30.000000 1.000000 0.000000 0.000000 0.000000
1 1 2 1 8771.998831 134.294885 7.067196 30.000000 1.000000 0.000000 0.000000 0.000000
1 1 2 1 8771.998831 134.288761 7.049798 30.000000 1.000000 0.000000 0.000000 0.000000
1 1 2 1 8771.998831 134.293529 7.065792 30.000000 1.000000 0.000000 0.000000 0.000000
1 1 2 1 8771.998831 134.290317 7.055137 30.000000 1.000000 0.000000 0.000000 0.000000
1 1 2 1 8771.998831 134.292614 7.061946 30.000000 1.000000 0.000000 0.000000 0.000000
1 1 2 1 8771.998831 134.296580 7.063466 30.000000 1.000000 0.000000 0.000000 0.000000
1 1 2 1 8771.998831 134.288192 7.052594 30.000000 1.000000 0.000000 0.000000 0.000000
1 1 2 1 8771.998831 134.297645 7.063944 30.000000 1.000000 0.000000 0.000000 0.000000
1 1 2 1 8771.998831 134.302211 7.068344 30.000000 1.000000 0.000000 0.000000 0.000000
1 1 2 1 8771.998831 134.298995 7.068123 30.000000 1.000000 0.000000 0.000000 0.000000
1 1 2 1 8771.998831 134.298838 7.063559 30.000000 1.000000 0.000000 0.000000 0.000000
1 1 2 1 8771.998831 134.293057 7.062813 30.000000 1.000000 0.000000 0.000000 0.000000
1 1 2 1 8771.998831 134.299768 7.069252 30.000000 1.000000 0.000000 0.000000 0.000000
1 1 2 1 8771.998831 134.289809 7.051548 30.000000 1.000000 0.000000 0.000000 0.000000
1 1 2 1 8771.998831 134.294657 7.061215 30.000000 1.000000 0.000000 0.000000 0.000000
1 1 2 1 8771.998831 134.299563 7.062785 30.000000 1.000000 0.000000 0.000000 0.000000
1 1 2 1 8771.998831 134.293576 7.050591 30.000000 1.000000 0.000000 0.000000 0.000000
1 1 2 1 8771.998831 134.300499 7.061710 30.000000 1.000000 0.000000 0.000000 0.000000
1 1 2 1 8771.998831 134.295091 7.064049 30.000000 1.000000 0.000000 0.000000 0.000000
1 1 2 1 8771.998831 134.295541 7.059365 30.000000 1.000000 0.000000 0.000000 0.000000
1 1 2 1 8771.998831 134.294056 7.051677 30.000000 1.000000 0.000000 0.000000 0.000000
1 1 2 1 8771.998831 134.292933 7.059082 30.000000 1.000000 0.000000 0.000000 0.000000
1 1 2 1 8771.998831 134.294457 7.053722 30.000000 1.000000 0.000000 0.000000 0.000000
1 1 2 1 8771.998831 134.292548 7.071346 30.000000 1.000000 0.000000 0.000000 0.000000
1 1 2 1 8771.998831 134.296632 7.059757 30.000000 1.000000 0.000000 0.000000 0.000000
1 1 2 1 8771.998831 134.289411 7.055465 30.000000 1.000000 0.000000 0.000000 0.000000
1 1 2 1 8771.998831 134.292058 7.052057 30.000000 1.000000 0.000000 0.000000 0.000000
1 1 2 1 8771.998831 134.293737 7.072234 30.000000 1.000000 0.000000 0.000000 0.000000
1 1 2 1 8771.998831 134.291637 7.051440 30.000000 1.000000 0.000000 0.000000 0.000000
1 1 2 1 8771.998831 134.290896 7.048788 30.000000 1.000000 0.000000 0.000000 0.000000
1 1 2 1 8771.998831 134.288407 7.050820 30.000000 1.000000 0.000000 0.000000 0.000000
1 1 2 1 8771.998831 134.295872 7.071054 30.000000 1.000000 0.000000 0.000000 0.000000
1 1 2 1 8771.998831 134.289923 7.054386 30.000000 1.000000 0.000000 0.000000 0.000000
1 1 2 1 8771.998831 134.294083 7.066179 30.000000 1.000000 0.000000 0.000000 0.000000
1 1 2 1 8771.998831 134.290289 7.059030 30.000000 1.000000 0.000000 0.000000 0.000000
1 1 2 1 8771.998831 134.291729 7.049755 30.000000 1.000000 0.000000 0.000000 0.000000
1 1 2 1 8771.998831 134.292578 7.065317 30.000000 1.000000 0.000000 0.000000 0.000000
1 1 2 1 8771.998831 134.292308 7.071330 30.000000 1.000000 0.000000 0.000000 0.000000
1 1 2 1 8771.998831 134.287972 7.051515 30.000000 1.000000 0.000000 0.000000 0.000000
1 1 2 1 8771.998831 134.290167 7.052181 30.000000 1.000000 0.000000 0.000000 0.000000
1 1 2 1 8771.998831 134.291754 7.058554 30.000000 1.000000 0.000000 0.000000 0.000000
1 1 2 1 8771.998831 134.291664 7.064627 30.000000 1.000000 0.000000 0.000000 0.000000
1 1 2 1 8771.998831 134.292561 7.073216 30.000000 1.000000 0.000000 0.000000 0.000000
1 1 2 1 8771.998831 134.302778 7.067865 30.000000 1.000000 0.000000 0.000000 0.000000
1 1 2 1 8771.998831 134.293212 7.059637 30.000000 1.000000 0.000000 0.000000 0.000000
1 1 2 1 8771.998831 134.294027 7.073384 30.000000 1.000000 0.000000 0.000000 0.000000
1 1 2 1 8771.998831 134.295574 7.063453 30.000000 1.000000 0.000000 0.000000 0.000000
1 1 2 1 8771.998831 134.292615 7.050558 30.000000 1.000000 0.000000 0.000000 0.000000
1 1 2 1 8771.998831 134.292134 7.063128 30.000000 1.000000 0.000000 0.000000 0.000000
1 1 2 1 8771.998831 134.292360 7.051474 30.000000 1.000000 0.000000 0.000000 0.000000
1 1 2 1 8771.998831 134.295359 7.063826 30.000000 1.000000 0.000000 0.000000 0.000000
1 1 2 1 8771.998831 134.298134 7.058668 30.000000 1.000000 0.000000 0.000000 0.000000
1 1 2 1 8771.998831 134.293243 7.050524 30.000000 1.000000 0.000000 0.000000 0.000000
1 1 2 1 8771.998831 134.293719 7.073132 30.000000 1.000000 0.000000 0.000000 0.000000
1 1 2 1 8771.998831 134.290911 7.054618 30.000000 1.000000 0.000000 0.000000 0.000000
1 1 2 1 8771.998831 134.289825 7.048754 30.000000 1.000000 0.000000 0.000000 0.000000
1 1 2 1 8771.998831 134.291214 7.054433 30.000000 1.000000 0.000000 0.000000 0.000000
1 1 2 1 8771.998831 134.302501 7.065217 30.000000 1.000000 0.000000 0.000000 0.000000
1 1 2 1 8771.998831 134.296665 7.064345 30.000000 1.000000 0.000000 0.000000 0.000000
1 1 2 1 8771.998831 134.292783 7.060417 30.000000 1.000000 0.000000 0.000000 0.000000
1 1 2 1 8771.998831 134.293344 7.065998 30.000000 1.000000 0.000000 0.000000 0.000000
1 1 2 1 8771.998831 134.291576 7.052274 30.000000 1.000000 0.000000 0.000000 0.000000
1 1 2 1 8771.998831 134.296985 7.069798 30.000000 1.000000 0.000000 0.000000 0.000000
1 1 2 1 8771.998831 134.292127 7.069202 30.000000 1.000000 0.000000 0.000000 0.000000
1 1 2 1 8771.998831 134.292487 7.051859 30.000000 1.000000 0.000000 0.000000 0.000000
1 1 2 1 8771.998831 134.293142 7.052095 30.000000 1.000000 0.000000 0.000000 0.000000
1 1 2 1 8771.998831 134.297174 7.066752 30.000000 1.000000 0.000000 0.000000 0.000000
1 1 2 1 8771.998831 134.294864 7.062491 30.000000 1.000000 0.000000 0.000000 0.000000
1 1 2 1 8771.998831 134.296442 7.056720 30.000000 1.000000 0.000000 0.000000 0.000000
1 1 2 1 8771.998831 134.294197 7.053117 30.000000 1.000000 0.000000 0.000000 0.000000
1 1 2 1 8771.998831 134.290989 7.052644 30.000000 1.000000 0.000000 0.000000 0.000000
1 1 2 1 8771.998831 134.297632 7.064515 30.000000 1.000000 0.000000 0.000000 0.000000
1 1 2 1 8771.998831 134.299657 7.063565 30.000000 1.000000 0.000000 0.000000 0.000000
1 1 2 1 8771.998831 134.296699 7.058356 30.000000 1.000000 0.000000 0.000000 0.000000
1 1 2 1 8771.998831 134.290545 7.057809 30.000000 1.000000 0.000000 0.000000 0.000000
1 1 2 1 8771.998831 134.292001 7.059947 30.000000 1.000000 0.000000 0.000000 0.000000
1 1 2 1 8771.998831 134.292885 7.053665 30.000000 1.000000 0.000000 0.000000 0.000000
1 1 2 1 8771.998831 134.301364 7.069072 30.000000 1.000000 0.000000 0.000000 0.000000
1 1 2 1 8771.998831 134.299915 7.062783 30.000000 1.000000 0.000000 0.000000 0.000000
1 1 2 1 8771.998831 134.295584 7.065273 30.000000 1.000000 0.000000 0.000000 0.000000
1 1 2 1 8771.998831 134.301661 7.070675 30.000000 1.000000 0.000000 0.000000 0.000000
1 1 2 1 8771.998831 134.290169 7.054718 30.000000 1.000000 0.000000 0.000000 0.000000
1 1 2 1 8771.998831 134.301848 7.063936 30.000000 1.000000 0.000000 0.000000 0.000000
1 1 2 1 8771.998831 134.290079 7.048730 30.000000 1.000000 0.000000 0.000000 0.000000
1 1 2 1 8771.998831 134.291827 7.050046 30.000000 1.000000 0.000000 0.000000 0.000000
1 1 2 1 8771.998831 134.299167 7.063038 30.000000 1.000000 0.000000 0.000000 0.000000
1 1 2 1 8771.998831 134.294606 7.068521 30.000000 1.000000 0.000000 0.000000 0.000000
1 1 2 1 8771.998831 134.294409 7.067232 30.000000 1.000000 0.000000 0.000000 0.000000
1 1 2 1 8771.998831 134.302603 7.068815 30.000000 1.000000 0.000000 0.000000 0.000000
1 1 2 1 8771.998831 134.294024 7.062203 30.000000 1.000000 0.000000 0.000000 0.000000
1 1 2 1 8771.998831 134.293150 7.050424 30.000000 1.000000 0.000000 0.000000 0.000000
1 1 2 1 8771.998831 134.291396 7.061478 30.000000 1.000000 0.000000 0.000000 0.000000
1 1 2 1 8771.998831 134.291818 7.054400 30.000000 1.000000 0.000000 0.000000 0.000000
1 1 2 1 8771.998831 134.292407 7.069231 30.000000 1.000000 0.000000 0.000000 0.000000
1 1 2 1 8771.998831 134.293638 7.063799 30.000000 1.000000 0.000000 0.000000 0.000000
1 1 2 1 8771.998831 134.292892 7.049739 30.000000 1.000000 0.000000 0.000000 0.000000
1 1 2 1 8771.998831 134.291693 7.063911 30.000000 1.000000 0.000000 0.000000 0.000000
1 1 2 1 8771.998831 134.295658 7.062860 30.000000 1.000000 0.000000 0.000000 0.000000
1 1 2 1 8771.998831 134.291870 7.052524 30.000000 1.000000 0.000000 0.000000 0.000000
1 1 2 1 8771.998831 134.294724 7.061088 30.000000 1.000000 0.000000 0.000000 0.000000
1 1 2 1 8771.998831 134.296175 7.067781 30.000000 1.000000 0.000000 0.000000 0.000000
1 1 2 1 8771.998831 134.296578 7.057486 30.000000 1.000000 0.000000 0.000000 0.000000
1 1 2 1 8771.998831 134.294352 7.072760 30.000000 1.000000 0.000000 0.000000 0.000000
1 1 2 1 8771.998831 134.298931 7.069938 30.000000 1.000000 0.000000 0.000000 0.000000
1 1 2 1 8771.998831 134.292575 7.066391 30.000000 1.000000 0.000000 0.000000 0.000000
1 1 2 1 8771.998831 134.300301 7.061974 30.000000 1.000000 0.000000 0.000000 0.000000
1 1 2 1 8771.998831 134.300971 7.068536 30.000000 1.000000 0.000000 0.000000 0.000000
1 1 2 1 8771.998831 134.291419 7.052006 30.000000 1.000000 0.000000 0.000000 0.000000
1 1 2 1 8771.998831 134.290608 7.053673 30.000000 1.000000 0.000000 0.000000 0.000000
1 1 2 1 8771.998831 134.296061 7.054993 30.000000 1.000000 0.000000 0.000000 0.000000
1 1 2 1 8771.998831 134.299904 7.069346 30.000000 1.000000 0.000000 0.000000 0.000000
1 1 2 1 8771.998831 134.302102 7.064413 30.000000 1.000000 0.000000 0.000000 0.000000
1 1 2 1 8771.998831 134.295750 7.067757 30.000000 1.000000 0.000000 0.000000 0.000000
1 1 2 1 8771.998831 134.290699 7.060568 30.000000 1.000000 0.000000 0.000000 0.000000
1 1 2 1 8771.998831 134.293947 7.051940 30.000000 1.000000 0.000000 0.000000 0.000000
1 1 2 1 8771.998831 134.299838 7.064899 30.000000 1.000000 0.000000 0.000000 0.000000
1 1 2 1 8771.998831 134.291889 7.050983 30.000000 1.000000 0.000000 0.000000 0.000000
1 1 2 1 8771.998831 134.288657 7.051853 30.000000 1.000000 0.000000 0.000000 0.000000
1 1 2 1 8771.998831 134.301874 7.064885 30.000000 1.000000 0.000000 0.000000 0.000000
1 1 2 1 8771.998831 134.298105 7.069631 30.000000 1.000000 0.000000 0.000000 0.000000
1 1 2 1 8771.998831 134.295145 7.063862 30.000000 1.000000 0.000000 0.000000 0.000000
1 1 2 1 8771.998831 134.294963 7.056557 30.000000 1.000000 0.000000 0.000000 0.000000
1 1 2 1 8771.998831 134.294785 7.071244 30.000000 1.000000 0.000000 0.000000 0.000000
1 1 2 1 8771.998831 134.290161 7.051876 30.000000 1.000000 0.000000 0.000000 0.000000
1 1 2 1 8771.998831 134.293700 7.064966 30.000000 1.000000 0.000000 0.000000 0.000000
1 1 2 1 8771.998831 134.292196 7.064625 30.000000 1.000000 0.000000 0.000000 0.000000
1 1 2 1 8771.998831 134.291614 7.065659 30.000000 1.000000 0.000000 0.000000 0.000000
1 1 2 1 8771.998831 134.296380 7.067946 30.000000 1.000000 0.000000 0.000000 0.000000
1 1 2 1 8771.998831 134.298102 7.059515 30.000000 1.000000 0.000000 0.000000 0.000000
1 1 2 1 8771.998831 134.300441 7.063852 30.000000 1.000000 0.000000 0.000000 0.000000
1 1 2 1 8771.998831 134.295207 7.053071 30.000000 1.000000 0.000000 0.000000 0.000000
1 1 2 1 8771.998831 134.290795 7.051507 30.000000 1.000000 0.000000 0.000000 0.000000
1 1 2 1 8771.998831 134.294903 7.068626 30.000000 1.000000 0.000000 0.000000 0.000000
1 1 2 1 8771.998831 134.300933 7.070590 30.000000 1.000000 0.000000 0.000000 0.000000
1 1 2 1 8771.998831 134.290954 7.049833 30.000000 1.000000 0.000000 0.000000 0.000000
1 1 2 1 8771.998831 134.295728 7.063335 30.000000 1.000000 0.000000 0.000000 0.000000
1 1 2 1 8771.998831 134.292657 7.070517 30.000000 1.000000 0.000000 0.000000 0.000000
1 1 2 1 8771.998831 134.294455 7.070313 30.000000 1.000000 0.000000 0.000000 0.000000
1 1 2 1 8771.998831 134.295680 7.064804 30.000000 1.000000 0.000000 0.000000 0.000000
1 1 2 1 8771.998831 134.293611 7.062894 30.000000 1.000000 0.000000 0.000000 0.000000
1 1 2 1 8771.998831 134.290313 7.055021 30.000000 1.000000 0.000000 0.000000 0.000000
1 1 2 1 8771.998831 134.290652 7.055095 30.000000 1.000000 0.000000 0.000000 0.000000
1 1 2 1 8771.998831 134.294648 7.066517 30.000000 1.000000 0.000000 0.000000 0.000000
1 1 2 1 8771.998831 134.294380 7.073233 30.000000 1.000000 0.000000 0.000000 0.000000
1 1 2 1 8771.998831 134.301720 7.071351 30.000000 1.000000 0.000000 0.000000 0.000000
1 1 2 1 8771.998831 134.295785 7.069496 30.000000 1.000000 0.000000 0.000000 0.000000
1 1 2 1 8771.998831 134.290887 7.050903 30.000000 1.000000 0.000000 0.000000 0.000000
1 1 2 1 8771.998831 134.294183 7.059900 30.000000 1.000000 0.000000 0.000000 0.000000
1 1 2 1 8771.998831 134.291517 7.065776 30.000000 1.000000 0.000000 0.000000 0.000000
1 1 2 1 8771.998831 134.292529 7.063645 30.000000 1.000000 0.000000 0.000000 0.000000
1 1 2 1 8771.998831 134.299238 7.069936 30.000000 1.000000 0.000000 0.000000 0.000000
1 1 2 1 8771.998831 134.293764 7.064149 30.000000 1.000000 0.000000 0.000000 0.000000
1 1 2 1 8771.998831 134.295205 7.064149 30.000000 1.000000 0.000000 0.000000 0.000000
1 1 2 1 8771.998831 134.290271 7.050749 30.000000 1.000000 0.000000 0.000000 0.000000
1 1 2 1 8771.998831 134.296658 7.063504 30.000000 1.000000 0.000000 0.000000 0.000000
1 1 2 1 8771.998831 134.291597 7.070345 30.000000 1.000000 0.000000 0.000000 0.000000
1 1 2 1 8771.998831 134.293804 7.072715 30.000000 1.000000 0.000000 0.000000 0.000000
1 1 2 1 8771.998831 134.297243 7.069740 30.000000 1.000000 0.000000 0.000000 0.000000
1 1 2 1 8771.998831 134.294452 7.052373 30.000000 1.000000 0.000000 0.000000 0.000000
1 1 2 1 8771.998831 134.300841 7.062077 30.000000 1.000000 0.000000 0.000000 0.000000
1 1 2 1 8771.998831 134.301965 7.063304 30.000000 1.000000 0.000000 0.000000 0.000000
1 1 2 1 8771.998831 134.289808 7.052958 30.000000 1.000000 0.000000 0.000000 0.000000
1 1 2 1 8771.998831 134.292710 7.063061 30.000000 1.000000 0.000000 0.000000 0.000000
1 1 2 1 8771.998831 134.297497 7.065572 30.000000 1.000000 0.000000 0.000000 0.000000
1 1 2 1 8771.998831 134.293245 7.070603 30.000000 1.000000 0.000000 0.000000 0.000000
1 1 2 1 8771.998831 134.296301 7.064055 30.000000 1.000000 0.000000 0.000000 0.000000
1 1 2 1 8771.998831 134.293245 7.064108 30.000000 1.000000 0.000000 0.000000 0.000000
1 1 2 1 8771.998831 134.301260 7.068853 30.000000 1.000000 0.000000 0.000000 0.000000
1 1 2 1 8771.998831 134.298013 7.067963 30.000000 1.000000 0.000000 0.000000 0.000000
1 1 2 1 8771.998831 134.296629 7.069774 30.000000 1.000000 0.000000 0.000000 0.000000
1 1 2 1 8771.998831 134.299014 7.064156 30.000000 1.000000 0.000000 0.000000 0.000000
1 1 2 1 8771.998831 134.295676 7.068976 30.000000 1.000000 0.000000 0.000000 0.000000
1 1 2 1 8771.998831 134.290274 7.050802 30.000000 1.000000 0.000000 0.000000 0.000000
1 1 2 1 8771.998831 134.294645 7.062178 30.000000 1.000000 0.000000 0.000000 0.000000
1 1 2 1 8771.998831 134.293307 7.052280 30.000000 1.000000 0.000000 0.000000 0.000000
1 1 2 1 8771.998831 134.300762 7.064216 30.000000 1.000000 0.000000 0.000000 0.000000
1 1 2 1 8771.998831 134.296509 7.064824 30.000000 1.000000 0.000000 0.000000 0.000000
1 1 2 1 8771.998831 134.296333 7.066500 30.000000 1.000000 0.000000 0.000000 0.000000
1 1 2 1 8771.998831 134.297350 7.069556 30.000000 1.000000 0.000000 0.000000 0.000000
1 1 2 1 8771.998831 134.294536 7.072691 30.000000 1.000000 0.000000 0.000000 0.000000
1 1 2 1 8771.998831 134.290718 7.049460 30.000000 1.000000 0.000000 0.000000 0.000000
1 1 2 1 8771.998831 134.300174 7.064549 30.000000 1.000000 0.000000 0.000000 0.000000
1 1 2 1 8771.998831 134.294487 7.052926 30.000000 1.000000 0.000000 0.000000 0.000000
1 1 2 1 8771.998831 134.295092 7.069906 30.000000 1.000000 0.000000 0.000000 0.000000
1 1 2 1 8771.998831 134.294193 7.054955 30.000000 1.000000 0.000000 0.000000 0.000000
1 1 2 1 8771.998831 134.296634 7.068024 30.000000 1.000000 0.000000 0.000000 0.000000
1 1 2 1 8771.998831 134.288834 7.054722 30.000000 1.000000 0.000000 0.000000 0.000000
1 1 2 1 8771.998831 134.296926 7.069512 30.000000 1.000000 0.000000 0.000000 0.000000
1 1 2 1 8771.998831 134.294159 7.069493 30.000000 1.000000 0.000000 0.000000 0.000000
1 1 2 1 8771.998831 134.300137 7.063475 30.000000 1.000000 0.000000 0.000000 0.000000
1 1 2 1 8771.998831 134.293091 7.049729 30.000000 1.000000 0.000000 0.000000 0.000000
1 1 2 1 8771.998831 134.288432 7.050796 30.000000 1.000000 0.000000 0.000000 0.000000
1 1 2 1 8771.998831 134.297724 7.066033 30.000000 1.000000 0.000000 0.000000 0.000000
1 1 2 1 8771.998831 134.290603 7.051218 30.000000 1.000000 0.000000 0.000000 0.000000
1 1 2 1 8771.998831 134.300792 7.064028 30.000000 1.000000 0.000000 0.000000 0.000000
1 1 2 1 8771.998831 134.296248 7.065191 30.000000 1.000000 0.000000 0.000000 0.000000
1 1 2 1 8771.998831 134.296022 7.057020 30.000000 1.000000 0.000000 0.000000 0.000000
1 1 2 1 8771.998831 134.298276 7.064429 30.000000 1.000000 0.000000 0.000000 0.000000
1 1 2 1 8771.998831 134.292792 7.061132 30.000000 1.000000 0.000000 0.000000 0.000000
1 1 2 1 8771.998831 134.297306 7.067284 30.000000 1.000000 0.000000 0.000000 0.000000
1 1 2 1 8771.998831 134.297011 7.068615 30.000000 1.000000 0.000000 0.000000 0.000000
1 1 2 1 8771.998831 134.293864 7.064769 30.000000 1.000000 0.000000 0.000000 0.000000
1 1 2 1 8771.998831 134.295438 7.070882 30.000000 1.000000 0.000000 0.000000 0.000000
1 1 2 1 8771.998831 134.291566 7.058560 30.000000 1.000000 0.000000 0.000000 0.000000
1 1 2 1 8771.998831 134.301558 7.070498 30.000000 1.000000 0.000000 0.000000 0.000000
1 1 2 1 8771.998831 134.292505 7.072867 30.000000 1.000000 0.000000 0.000000 0.000000
1 1 2 1 8771.998831 134.296381 7.068302 30.000000 1.000000 0.000000 0.000000 0.000000
1 1 2 1 8771.998831 134.293136 7.062756 30.000000 1.000000 0.000000 0.000000 0.000000
1 1 2 1 8771.998831 134.291252 7.053706 30.000000 1.000000 0.000000 0.000000 0.000000
1 1 2 1 8771.998831 134.292280 7.066569 30.000000 1.000000 0.000000 0.000000 0.000000
1 1 2 1 8771.998831 134.294099 7.067051 30.000000 1.000000 0.000000 0.000000 0.000000
1 1 2 1 8771.998831 134.291808 7.069844 30.000000 1.000000 0.000000 0.000000 0.000000
1 1 2 1 8771.998831 134.297509 7.064584 30.000000 1.000000 0.000000 0.000000 0.000000
1 1 2 1 8771.998831 134.295381 7.068236 30.000000 1.000000 0.000000 0.000000 0.000000
1 1 2 1 8771.998831 134.292470 7.071973 30.000000 1.000000 0.000000 0.000000 0.000000
1 1 2 1 8771.998831 134.289843 7.053796 30.000000 1.000000 0.000000 0.000000 0.000000
1 1 2 1 8771.998831 134.297496 7.057072 30.000000 1.000000 0.000000 0.000000 0.000000
1 1 2 1 8771.998831 134.295774 7.056844 30.000000 1.000000 0.000000 0.000000 0.000000
1 1 2 1 8771.998831 134.290934 7.057572 30.000000 1.000000 0.000000 0.000000 0.000000
1 1 2 1 8771.998831 134.290324 7.052378 30.000000 1.000000 0.000000 0.000000 0.000000
1 1 2 1 8771.998831 134.297421 7.065580 30.000000 1.000000 0.000000 0.000000 0.000000
1 1 2 1 8771.998831 134.295123 7.069920 30.000000 1.000000 0.000000 0.000000 0.000000
1 1 2 1 8771.998831 134.295689 7.064901 30.000000 1.000000 0.000000 0.000000 0.000000
1 1 2 1 8771.998831 134.290017 7.058504 30.000000 1.000000 0.000000 0.000000 0.000000
1 1 2 1 8771.998831 134.289830 7.055180 30.000000 1.000000 0.000000 0.000000 0.000000
1 1 2 1 8771.998831 134.297278 7.066729 30.000000 1.000000 0.000000 0.000000 0.000000
1 1 2 1 8771.998831 134.292358 7.053535 30.000000 1.000000 0.000000 0.000000 0.000000
1 1 2 1 8771.998831 134.290535 7.059682 30.000000 1.000000 0.000000 0.000000 0.000000
1 1 2 1 8771.998831 134.296878 7.069609 30.000000 1.000000 0.000000 0.000000 0.000000
1 1 2 1 8771.998831 134.293094 7.066266 30.000000 1.000000 0.000000 0.000000 0.000000
1 1 2 1 8771.998831 134.294418 7.065008 30.000000 1.000000 0.000000 0.000000 0.000000
1 1 2 1 8771.998831 134.296156 7.057629 30.000000 1.000000 0.000000 0.000000 0.000000
1 1 2 1 8771.998831 134.293509 7.069671 30.000000 1.000000 0.000000 0.000000 0.000000
1 1 2 1 8771.998831 134.290329 7.054707 30.000000 1.000000 0.000000 0.000000 0.000000
1 1 2 1 8771.998831 134.302743 7.069616 30.000000 1.000000 0.000000 0.000000 0.000000
1 1 2 1 8771.998831 134.293734 7.069550 30.000000 1.000000 0.000000 0.000000 0.000000
1 1 2 1 8771.998831 134.290136 7.056214 30.000000 1.000000 0.000000 0.000000 0.000000
1 1 2 1 8771.998831 134.297501 7.063958 30.000000 1.000000 0.000000 0.000000 0.000000
1 1 2 1 8771.998831 134.289769 7.052375 30.000000 1.000000 0.000000 0.000000 0.000000
1 1 2 1 8771.998831 134.293565 7.060901 30.000000 1.000000 0.000000 0.000000 0.000000
1 1 2 1 8771.998831 134.290253 7.056597 30.000000 1.000000 0.000000 0.000000 0.000000
1 1 2 1 8771.998831 134.302236 7.068339 30.000000 1.000000 0.000000 0.000000 0.000000
1 1 2 1 8771.998831 134.296144 7.067061 30.000000 1.000000 0.000000 0.000000 0.000000
1 1 2 1 8771.998831 134.294848 7.064009 30.000000 1.000000 0.000000 0.000000 0.000000
1 1 2 1 8771.998831 134.290845 7.052596 30.000000 1.000000 0.000000 0.000000 0.000000
1 1 2 1 8771.998831 134.293200 7.066587 30.000000 1.000000 0.000000 0.000000 0.000000
1 1 2 1 8771.998831 134.296237 7.064116 30.000000 1.000000 0.000000 0.000000 0.000000
1 1 2 1 8771.998831 134.288206 7.053872 30.000000 1.000000 0.000000 0.000000 0.000000
1 1 2 1 8771.998831 134.299598 7.066913 30.000000 1.000000 0.000000 0.000000 0.000000
1 1 2 1 8771.998831 134.291375 7.066259 30.000000 1.000000 0.000000 0.000000 0.000000
1 1 2 1 8771.998831 134.291342 7.064230 30.000000 1.000000 0.000000 0.000000 0.000000
1 1 2 1 8771.998831 134.295772 7.059899 30.000000 1.000000 0.000000 0.000000 0.000000
1 1 2 1 8771.998831 134.293374 7.062816 30.000000 1.000000 0.000000 0.000000 0.000000
1 1 2 1 8771.998831 134.292220 7.051404 30.000000 1.000000 0.000000 0.000000 0.000000
1 1 2 1 8771.998831 134.293270 7.049960 30.000000 1.000000 0.000000 0.000000 0.000000
1 1 2 1 8771.998831 134.297063 7.069348 30.000000 1.000000 0.000000 0.000000 0.000000
1 1 2 1 8771.998831 134.294354 7.053812 30.000000 1.000000 0.000000 0.000000 0.000000
1 1 2 1 8771.998831 134.294560 7.069220 30.000000 1.000000 0.000000 0.000000 0.000000
1 1 2 1 8771.998831 134.293434 7.070163 30.000000 1.000000 0.000000 0.000000 0.000000
1 1 2 1 8771.998831 134.292272 7.059008 30.000000 1.000000 0.000000 0.000000 0.000000
1 1 2 1 8771.998831 134.296060 7.055303 30.000000 1.000000 0.000000 0.000000 0.000000
1 1 2 1 8771.998831 134.296063 7.057161 30.000000 1.000000 0.000000 0.000000 0.000000
1 1 2 1 8771.998831 134.293219 7.072230 30.000000 1.000000 0.000000 0.000000 0.000000
1 1 2 1 8771.998831 134.295519 7.053462 30.000000 1.000000 0.000000 0.000000 0.000000
1 1 2 1 8771.998831 134.294371 7.059722 30.000000 1.000000 0.000000 0.000000 0.000000
1 1 2 1 8771.998831 134.293232 7.069898 30.000000 1.000000 0.000000 0.000000 0.000000
1 1 2 1 8771.998831 134.291087 7.054061 30.000000 1.000000 0.000000 0.000000 0.000000
1 1 2 1 8771.998831 134.295803 7.057539 30.000000 1.000000 0.000000 0.000000 0.000000
1 1 2 1 8771.998831 134.291896 7.059803 30.000000 1.000000 0.000000 0.000000 0.000000
1 1 2 1 8771.998831 134.292763 7.073188 30.000000 1.000000 0.000000 0.000000 0.000000
1 1 2 1 8771.998831 134.300206 7.062642 30.000000 1.000000 0.000000 0.000000 0.000000
1 1 2 1 8771.998831 134.297457 7.067685 30.000000 1.000000 0.000000 0.000000 0.000000
1 1 2 1 8771.998831 134.289441 7.051348 30.000000 1.000000 0.000000 0.000000 0.000000
1 1 2 1 8771.998831 134.296620 7.068675 30.000000 1.000000 0.000000 0.000000 0.000000
1 1 2 1 8771.998831 134.291890 7.050107 30.000000 1.000000 0.000000 0.000000 0.000000
1 1 2 1 8771.998831 134.293012 7.064531 30.000000 1.000000 0.000000 0.000000 0.000000
1 1 2 1 8771.998831 134.299030 7.067753 30.000000 1.000000 0.000000 0.000000 0.000000
1 1 2 1 8771.998831 134.290051 7.056888 30.000000 1.000000 0.000000 0.000000 0.000000
1 1 2 1 8771.998831 134.291084 7.058253 30.000000 1.000000 0.000000 0.000000 0.000000
1 1 2 1 8771.998831 134.290201 7.054190 30.000000 1.000000 0.000000 0.000000 0.000000
1 1 2 1 8771.998831 134.294362 7.056184 30.000000 1.000000 0.000000 0.000000 0.000000
1 1 2 1 8771.998831 134.293887 7.062731 30.000000 1.000000 0.000000 0.000000 0.000000
1 1 2 1 8771.998831 134.298570 7.069222 30.000000 1.000000 0.000000 0.000000 0.000000
1 1 2 1 8771.998831 134.294749 7.066354 30.000000 1.000000 0.000000 0.000000 0.000000
1 1 2 1 8771.998831 134.291950 7.059513 30.000000 1.000000 0.000000 0.000000 0.000000
1 1 2 1 8771.998831 134.293183 7.049720 30.000000 1.000000 0.000000 0.000000 0.000000
1 1 2 1 8771.998831 134.299691 7.062660 30.000000 1.000000 0.000000 0.000000 0.000000
1 1 2 1 8771.998831 134.291370 7.054408 30.000000 1.000000 0.000000 0.000000 0.000000
1 1 2 1 8771.998831 134.295059 7.063458 30.000000 1.000000 0.000000 0.000000 0.000000
1 1 2 1 8771.998831 134.295796 7.055622 30.000000 1.000000 0.000000 0.000000 0.000000
1 1 2 1 8771.998831 134.294627 7.067334 30.000000 1.000000 0.000000 0.000000 0.000000
1 1 2 1 8771.998831 134.295637 7.070399 30.000000 1.000000 0.000000 0.000000 0.000000
1 1 2 1 8771.998831 134.298939 7.063219 30.000000 1.000000 0.000000 0.000000 0.000000
1 1 2 1 8771.998831 134.291351 7.060333 30.000000 1.000000 0.000000 0.000000 0.000000
1 1 2 1 8771.998831 134.294835 7.060838 30.000000 1.000000 0.000000 0.000000 0.000000
1 1 2 1 8771.998831 134.297869 7.069506 30.000000 1.000000 0.000000 0.000000 0.000000
1 1 2 1 8771.998831 134.297423 7.065845 30.000000 1.000000 0.000000 0.000000 0.000000
1 1 2 1 8771.998831 134.297981 7.066941 30.000000 1.000000 0.000000 0.000000 0.000000
1 1 2 1 8771.998831 134.293227 7.061565 30.000000 1.000000 0.000000 0.000000 0.000000
1 1 2 1 8771.998831 134.290264 7.058339 30.000000 1.000000 0.000000 0.000000 0.000000
1 1 2 1 8771.998831 134.294066 7.073369 30.000000 1.000000 0.000000 0.000000 0.000000
1 1 2 1 8771.998831 134.300549 7.064684 30.000000 1.000000 0.000000 0.000000 0.000000
1 1 2 1 8771.998831 134.291450 7.050942 30.000000 1.000000 0.000000 0.000000 0.000000
1 1 2 1 8771.998831 134.298237 7.067177 30.000000 1.000000 0.000000 0.000000 0.000000
1 1 2 1 8771.998831 134.299056 7.070068 30.000000 1.000000 0.000000 0.000000 0.000000
1 1 2 1 8771.998831 134.290750 7.052433 30.000000 1.000000 0.000000 0.000000 0.000000
1 1 2 1 8771.998831 134.295135 7.070261 30.000000 1.000000 0.000000 0.000000 0.000000
1 1 2 1 8771.998831 134.291761 7.060478 30.000000 1.000000 0.000000 0.000000 0.000000
1 1 2 1 8771.998831 134.293461 7.054778 30.000000 1.000000 0.000000 0.000000 0.000000
1 1 2 1 8771.998831 134.292747 7.070357 30.000000 1.000000 0.000000 0.000000 0.000000
1 1 2 1 8771.998831 134.292081 7.065008 30.000000 1.000000 0.000000 0.000000 0.000000
1 1 2 1 8771.998831 134.297791 7.068643 30.000000 1.000000 0.000000 0.000000 0.000000
1 1 2 1 8771.998831 134.296775 7.064282 30.000000 1.000000 0.000000 0.000000 0.000000
1 1 2 1 8771.998831 134.298993 7.065778 30.000000 1.000000 0.000000 0.000000 0.000000
1 1 2 1 8771.998831 134.294763 7.052618 30.000000 1.000000 0.000000 0.000000 0.000000
1 1 2 1 8771.998831 134.296242 7.066169 30.000000 1.000000 0.000000 0.000000 0.000000
1 1 2 1 8771.998831 134.293307 7.064780 30.000000 1.000000 0.000000 0.000000 0.000000
1 1 2 1 8771.998831 134.299616 7.070504 30.000000 1.000000 0.000000 0.000000 0.000000
1 1 2 1 8771.998831 134.289256 7.053291 30.000000 1.000000 0.000000 0.000000 0.000000
1 1 2 1 8771.998831 134.292177 7.050306 30.000000 1.000000 0.000000 0.000000 0.000000
1 1 2 1 8771.998831 134.289493 7.056952 30.000000 1.000000 0.000000 0.000000 0.000000
1 1 2 1 8771.998831 134.302186 7.068814 30.000000 1.000000 0.000000 0.000000 0.000000
1 1 2 1 8771.998831 134.297689 7.067635 30.000000 1.000000 0.000000 0.000000 0.000000
1 1 2 1 8771.998831 134.288217 7.053504 30.000000 1.000000 0.000000 0.000000 0.000000
1 1 2 1 8771.998831 134.291952 7.064448 30.000000 1.000000 0.000000 0.000000 0.000000
1 1 2 1 8771.998831 134.299428 7.064761 30.000000 1.000000 0.000000 0.000000 0.000000
1 1 2 1 8771.998831 134.296275 7.069354 30.000000 1.000000 0.000000 0.000000 0.000000
1 1 2 1 8771.998831 134.296189 7.060849 30.000000 1.000000 0.000000 0.000000 0.000000
1 1 2 1 8771.998831 134.293103 7.050734 30.000000 1.000000 0.000000 0.000000 0.000000
1 1 2 1 8771.998831 134.294689 7.054654 30.000000 1.000000 0.000000 0.000000 0.000000
1 1 2 1 8771.998831 134.291451 7.061174 30.000000 1.000000 0.000000 0.000000 0.000000
1 1 2 1 8771.998831 134.289006 7.049526 30.000000 1.000000 0.000000 0.000000 0.000000
1 1 2 1 8771.998831 134.293120 7.050171 30.000000 1.000000 0.000000 0.000000 0.000000
1 1 2 1 8771.998831 134.298224 7.057909 30.000000 1.000000 0.000000 0.000000 0.000000
1 1 2 1 8771.998831 134.292627 7.069701 30.000000 1.000000 0.000000 0.000000 0.000000
1 1 2 1 8771.998831 134.291349 7.051891 30.000000 1.000000 0.000000 0.000000 0.000000
1 1 2 1 8771.998831 134.298563 7.059271 30.000000 1.000000 0.000000 0.000000 0.000000
1 1 2 1 8771.998831 134.295787 7.061120 30.000000 1.000000 0.000000 0.000000 0.000000
1 1 2 1 8771.998831 134.295364 7.069073 30.000000 1.000000 0.000000 0.000000 0.000000
1 1 2 1 8771.998831 134.289039 7.052319 30.000000 1.000000 0.000000 0.000000 0.000000
1 1 2 1 8771.998831 134.297507 7.059862 30.000000 1.000000 0.000000 0.000000 0.000000
1 1 2 1 8771.998831 134.291326 7.057861 30.000000 1.000000 0.000000 0.000000 0.000000
1 1 2 1 8771.998831 134.293046 7.071420 30.000000 1.000000 0.000000 0.000000 0.000000
1 1 2 1 8771.998831 134.294539 7.062500 30.000000 1.000000 0.000000 0.000000 0.000000
1 1 2 1 8771.998831 134.299111 7.064846 30.000000 1.000000 0.000000 0.000000 0.000000
1 1 2 1 8771.998831 134.295343 7.069595 30.000000 1.000000 0.000000 0.000000 0.000000
1 1 2 1 8771.998831 134.291526 7.058490 30.000000 1.000000 0.000000 0.000000 0.000000
1 1 2 1 8771.998831 134.296226 7.064826 30.000000 1.000000 0.000000 0.000000 0.000000
1 1 2 1 8771.998831 134.294753 7.052165 30.000000 1.000000 0.000000 0.000000 0.000000
1 1 2 1 8771.998831 134.292666 7.062987 30.000000 1.000000 0.000000 0.000000 0.000000
1 1 2 1 8771.998831 134.292378 7.051489 30.000000 1.000000 0.000000 0.000000 0.000000
1 1 2 1 8771.998831 134.293660 7.064484 30.000000 1.000000 0.000000 0.000000 0.000000
1 1 2 1 8771.998831 134.294257 7.064004 30.000000 1.000000 0.000000 0.000000 0.000000
1 1 2 1 8771.998831 134.298604 7.069649 30.000000 1.000000 0.000000 0.000000 0.000000
1 1 2 1 8771.998831 134.301014 7.070714 30.000000 1.000000 0.000000 0.000000 0.000000
1 1 2 1 8771.998831 134.302605 7.067122 30.000000 1.000000 0.000000 0.000000 0.000000
1 1 2 1 8771.998831 134.294334 7.072707 30.000000 1.000000 0.000000 0.000000 0.000000
1 1 2 1 8771.998831 134.292127 7.050208 30.000000 1.000000 0.000000 0.000000 0.000000
1 1 2 1 8771.998831 134.289227 7.055809 30.000000 1.000000 0.000000 0.000000 0.000000
1 1 2 1 8771.998831 134.289537 7.055188 30.000000 1.000000 0.000000 0.000000 0.000000
1 1 2 1 8771.998831 134.292963 7.074118 30.000000 1.000000 0.000000 0.000000 0.000000
1 1 2 1 8771.998831 134.288854 7.054086 30.000000 1.000000 0.000000 0.000000 0.000000
1 1 2 1 8771.998831 134.288515 7.051539 30.000000 1.000000 0.000000 0.000000 0.000000
1 1 2 1 8771.998831 134.298006 7.066135 30.000000 1.000000 0.000000 0.000000 0.000000
1 1 2 1 8771.998831 134.293298 7.061956 30.000000 1.000000 0.000000 0.000000 0.000000
1 1 2 1 8771.998831 134.294373 7.059487 30.000000 1.000000 0.000000 0.000000 0.000000
1 1 2 1 8771.998831 134.290020 7.052180 30.000000 1.000000 0.000000 0.000000 0.000000
1 1 2 1 8771.998831 134.290968 7.053075 30.000000 1.000000 0.000000 0.000000 0.000000
1 1 2 1 8771.998831 134.292230 7.071178 30.000000 1.000000 0.000000 0.000000 0.000000
1 1 2 1 8771.998831 134.298369 7.058643 30.000000 1.000000 0.000000 0.000000 0.000000
1 1 2 1 8771.998831 134.293321 7.066494 30.000000 1.000000 0.000000 0.000000 0.000000
1 1 2 1 8771.998831 134.291962 7.065959 30.000000 1.000000 0.000000 0.000000 0.000000
1 1 2 1 8771.998831 134.292230 7.053659 30.000000 1.000000 0.000000 0.000000 0.000000
1 1 2 1 8771.998831 134.296480 7.060374 30.000000 1.000000 0.000000 0.000000 0.000000
1 1 2 1 8771.998831 134.288586 7.053665 30.000000 1.000000 0.000000 0.000000 0.000000
1 1 2 1 8771.998831 134.291768 7.058914 30.000000 1.000000 0.000000 0.000000 0.000000
1 1 2 1 8771.998831 134.295426 7.062521 30.000000 1.000000 0.000000 0.000000 0.000000
1 1 2 1 8771.998831 134.292070 7.068590 30.000000 1.000000 0.000000 0.000000 0.000000
1 1 2 1 8771.998831 134.294670 7.068281 30.000000 1.000000 0.000000 0.000000 0.000000
1 1 2 1 8771.998831 134.295236 7.063837 30.000000 1.000000 0.000000 0.000000 0.000000
1 1 2 1 8771.998831 134.296938 7.064094 30.000000 1.000000 0.000000 0.000000 0.000000
1 1 2 1 8771.998831 134.296765 7.067158 30.000000 1.000000 0.000000 0.000000 0.000000
1 1 2 1 8771.998831 134.288628 7.052935 30.000000 1.000000 0.000000 0.000000 0.000000
1 1 2 1 8771.998831 134.299025 7.064608 30.000000 1.000000 0.000000 0.000000 0.000000
1 1 2 1 8771.998831 134.296131 7.066613 30.000000 1.000000 0.000000 0.000000 0.000000
1 1 2 1 8771.998831 134.295104 7.053761 30.000000 1.000000 0.000000 0.000000 0.000000
1 1 2 1 8771.998831 134.290545 7.049010 30.000000 1.000000 0.000000 0.000000 0.000000
1 1 2 1 8771.998831 134.294723 7.070190 30.000000 1.000000 0.000000 0.000000 0.000000
1 1 2 1 8771.998831 134.293138 7.060818 30.000000 1.000000 0.000000 0.000000 0.000000
1 1 2 1 8771.998831 134.292902 7.051381 30.000000 1.000000 0.000000 0.000000 0.000000
1 1 2 1 8771.998831 134.294254 7.062515 30.000000 1.000000 0.000000 0.000000 0.000000
1 1 2 1 8771.998831 134.296755 7.066567 30.000000 1.000000 0.000000 0.000000 0.000000
1 1 2 1 8771.998831 134.293792 7.054863 30.000000 1.000000 0.000000 0.000000 0.000000
1 1 2 1 8771.998831 134.293481 7.060258 30.000000 1.000000 0.000000 0.000000 0.000000
1 1 2 1 8771.998831 134.295182 7.059029 30.000000 1.000000 0.000000 0.000000 0.000000
1 1 2 1 8771.998831 134.293672 7.073135 30.000000 1.000000 0.000000 0.000000 0.000000
1 1 2 1 8771.998831 134.297437 7.058577 30.000000 1.000000 0.000000 0.000000 0.000000
1 1 2 1 8771.998831 134.290271 7.055339 30.000000 1.000000 0.000000 0.000000 0.000000
1 1 2 1 8771.998831 134.296597 7.063645 30.000000 1.000000 0.000000 0.000000 0.000000
1 1 2 1 8771.998831 134.290249 7.056861 30.000000 1.000000 0.000000 0.000000 0.000000
1 1 2 1 8771.998831 134.293804 7.070559 30.000000 1.000000 0.000000 0.000000 0.000000
1 1 2 1 8771.998831 134.302723 7.067911 30.000000 1.000000 0.000000 0.000000 0.000000
1 1 2 1 8771.998831 134.299343 7.065285 30.000000 1.000000 0.000000 0.000000 0.000000
1 1 2 1 8771.998831 134.294660 7.060935 30.000000 1.000000 0.000000 0.000000 0.000000
1 1 2 1 8771.998831 134.299554 7.063687 30.000000 1.000000 0.000000 0.000000 0.000000
1 1 2 1 8771.998831 134.296742 7.064148 30.000000 1.000000 0.000000 0.000000 0.000000
1 1 2 1 8771.998831 134.293897 7.072555 30.000000 1.000000 0.000000 0.000000 0.000000
1 1 2 1 8771.998831 134.295738 7.064824 30.000000 1.000000 0.000000 0.000000 0.000000
1 1 2 1 8771.998831 134.298306 7.069663 30.000000 1.000000 0.000000 0.000000 0.000000
1 1 2 1 8771.998831 134.301796 7.065088 30.000000 1.000000 0.000000 0.000000 0.000000
1 1 2 1 8771.998831 134.294435 7.064100 30.000000 1.000000 0.000000 0.000000 0.000000
1 1 2 1 8771.998831 134.293230 7.067512 30.000000 1.000000 0.000000 0.000000 0.000000
1 1 2 1 8771.998831 134.296441 7.056005 30.000000 1.000000 0.000000 0.000000 0.000000
1 1 2 1 8771.998831 134.294963 7.070498 30.000000 1.000000 0.000000 0.000000 0.000000
1 1 2 1 8771.998831 134.289166 7.053952 30.000000 1.000000 0.000000 0.000000 0.000000
1 1 2 1 8771.998831 134.297246 7.059194 30.000000 1.000000 0.000000 0.000000 0.000000
1 1 2 1 8771.998831 134.292200 7.065100 30.000000 1.000000 0.000000 0.000000 0.000000
1 1 2 1 8771.998831 134.301838 7.063987 30.000000 1.000000 0.000000 0.000000 0.000000
1 1 2 1 8771.998831 134.293583 7.069456 30.000000 1.000000 0.000000 0.000000 0.000000
1 1 2 1 8771.998831 134.292719 7.068720 30.000000 1.000000 0.000000 0.000000 0.000000
1 1 2 1 8771.998831 134.295639 7.061864 30.000000 1.000000 0.000000 0.000000 0.000000
1 1 2 1 8771.998831 134.300150 7.068818 30.000000 1.000000 0.000000 0.000000 0.000000
1 1 2 1 8771.998831 134.290137 7.051680 30.000000 1.000000 0.000000 0.000000 0.000000
1 1 2 1 8771.998831 134.292771 7.060738 30.000000 1.000000 0.000000 0.000000 0.000000
1 1 2 1 8771.998831 134.294651 7.061398 30.000000 1.000000 0.000000 0.000000 0.000000
1 1 2 1 8771.998831 134.295542 7.069722 30.000000 1.000000 0.000000 0.000000 0.000000
1 1 2 1 8771.998831 134.293736 7.068833 30.000000 1.000000 0.000000 0.000000 0.000000
1 1 2 1 8771.998831 134.293128 7.051617 30.000000 1.000000 0.000000 0.000000 0.000000
1 1 2 1 8771.998831 134.292220 7.052086 30.000000 1.000000 0.000000 0.000000 0.000000
1 1 2 1 8771.998831 134.296342 7.056503 30.000000 1.000000 0.000000 0.000000 0.000000
1 1 2 1 8771.998831 134.291020 7.058709 30.000000 1.000000 0.000000 0.000000 0.000000
1 1 2 1 8771.998831 134.294106 7.053692 30.000000 1.000000 0.000000 0.000000 0.000000
1 1 2 1 8771.998831 134.294883 7.071156 30.000000 1.000000 0.000000 0.000000 0.000000
1 1 2 1 8771.998831 134.299319 7.069471 30.000000 1.000000 0.000000 0.000000 0.000000
1 1 2 1 8771.998831 134.290912 7.061820 30.000000 1.000000 0.000000 0.000000 0.000000
1 1 2 1 8771.998831 134.301919 7.069398 30.000000 1.000000 0.000000 0.000000 0.000000
1 1 2 1 8771.998831 134.288043 7.052109 30.000000 1.000000 0.000000 0.000000 0.000000
1 1 2 1 8771.998831 134.288687 7.052938 30.000000 1.000000 0.000000 0.000000 0.000000
1 1 2 1 8771.998831 134.293637 7.063429 30.000000 1.000000 0.000000 0.000000 0.000000
1 1 2 1 8771.998831 134.302164 7.069807 30.000000 1.000000 0.000000 0.000000 0.000000
1 1 2 1 8771.998831 134.294146 7.059996 30.000000 1.000000 0.000000 0.000000 0.000000
1 1 2 1 8771.998831 134.294972 7.067385 30.000000 1.000000 0.000000 0.000000 0.000000
1 1 2 1 8771.998831 134.289614 7.057396 30.000000 1.000000 0.000000 0.000000 0.000000
1 1 2 1 8771.998831 134.291194 7.052563 30.000000 1.000000 0.000000 0.000000 0.000000
1 1 2 1 8771.998831 134.294686 7.062935 30.000000 1.000000 0.000000 0.000000 0.000000
1 1 2 1 8771.998831 134.302381 7.068318 30.000000 1.000000 0.000000 0.000000 0.000000
1 1 2 1 8771.998831 134.289613 7.051618 30.000000 1.000000 0.000000 0.000000 0.000000
1 1 2 1 8771.998831 134.296172 7.064624 30.000000 1.000000 0.000000 0.000000 0.000000
1 1 2 1 8771.998831 134.294250 7.061913 30.000000 1.000000 0.000000 0.000000 0.000000
1 1 2 1 8771.998831 134.290683 7.049580 30.000000 1.000000 0.000000 0.000000 0.000000
1 1 2 1 8771.998831 134.290169 7.054599 30.000000 1.000000 0.000000 0.000000 0.000000
1 1 2 1 8771.998831 134.298899 7.063730 30.000000 1.000000 0.000000 0.000000 0.000000
1 1 2 1 8771.998831 134.294705 7.062978 30.000000 1.000000 0.000000 0.000000 0.000000
1 1 2 1 8771.998831 134.292249 7.069395 30.000000 1.000000 0.000000 0.000000 0.000000
1 1 2 1 8771.998831 134.299085 7.065216 30.000000 1.000000 0.000000 0.000000 0.000000
1 1 2 1 8771.998831 134.295178 7.065322 30.000000 1.000000 0.000000 0.000000 0.000000
1 1 2 1 8771.998831 134.292279 7.061678 30.000000 1.000000 0.000000 0.000000 0.000000
1 1 2 1 8771.998831 134.297634 7.059983 30.000000 1.000000 0.000000 0.000000 0.000000
1 1 2 1 8771.998831 134.297268 7.059588 30.000000 1.000000 0.000000 0.000000 0.000000
1 1 2 1 8771.998831 134.300472 7.070080 30.000000 1.000000 0.000000 0.000000 0.000000
1 1 2 1 8771.998831 134.292368 7.071865 30.000000 1.000000 0.000000 0.000000 0.000000
1 1 2 1 8771.998831 134.300860 7.061448 30.000000 1.000000 0.000000 0.000000 0.000000
1 1 2 1 8771.998831 134.301819 7.068746 30.000000 1.000000 0.000000 0.000000 0.000000
1 1 2 1 8771.998831 134.295114 7.063602 30.000000 1.000000 0.000000 0.000000 0.000000
1 1 2 1 8771.998831 134.296162 7.069534 30.000000 1.000000 0.000000 0.000000 0.000000
1 1 2 1 8771.998831 134.296175 7.060079 30.000000 1.000000 0.000000 0.000000 0.000000
1 1 2 1 8771.998831 134.292563 7.053550 30.000000 1.000000 0.000000 0.000000 0.000000
1 1 2 1 8771.998831 134.293535 7.074162 30.000000 1.000000 0.000000 0.000000 0.000000
1 1 2 1 8771.998831 134.289087 7.053239 30.000000 1.000000 0.000000 0.000000 0.000000
1 1 2 1 8771.998831 134.299765 7.069529 30.000000 1.000000 0.000000 0.000000 0.000000
1 1 2 1 8771.998831 134.290122 7.058272 30.000000 1.000000 0.000000 0.000000 0.000000
1 1 2 1 8771.998831 134.290164 7.056878 30.000000 1.000000 0.000000 0.000000 0.000000
1 1 2 1 8771.998831 134.301813 7.063105 30.000000 1.000000 0.000000 0.000000 0.000000
1 1 2 1 8771.998831 134.294932 7.059471 30.000000 1.000000 0.000000 0.000000 0.000000
1 1 2 1 8771.998831 134.294219 7.055836 30.000000 1.000000 0.000000 0.000000 0.000000
1 1 2 1 8771.998831 134.293303 7.052680 30.000000 1.000000 0.000000 0.000000 0.000000
1 1 2 1 8771.998831 134.296435 7.065721 30.000000 1.000000 0.000000 0.000000 0.000000
1 1 2 1 8771.998831 134.302607 7.070541 30.000000 1.000000 0.000000 0.000000 0.000000
1 1 2 1 8771.998831 134.290449 7.059346 30.000000 1.000000 0.000000 0.000000 0.000000
1 1 2 1 8771.998831 134.294577 7.066627 30.000000 1.000000 0.000000 0.000000 0.000000
1 1 2 1 8771.998831 134.299095 7.063459 30.000000 1.000000 0.000000 0.000000 0.000000
1 1 2 1 8771.998831 134.291440 7.064084 30.000000 1.000000 0.000000 0.000000 0.000000
1 1 2 1 8771.998831 134.297893 7.064348 30.000000 1.000000 0.000000 0.000000 0.000000
1 1 2 1 8771.998831 134.292930 7.059587 30.000000 1.000000 0.000000 0.000000 0.000000
1 1 2 1 8771.998831 134.292355 7.059263 30.000000 1.000000 0.000000 0.000000 0.000000
1 1 2 1 8771.998831 134.301862 7.069044 30.000000 1.000000 0.000000 0.000000 0.000000
1 1 2 1 8771.998831 134.293742 7.060772 30.000000 1.000000 0.000000 0.000000 0.000000
1 1 2 1 8771.998831 134.301605 7.068845 30.000000 1.000000 0.000000 0.000000 0.000000
1 1 2 1 8771.998831 134.298314 7.063996 30.000000 1.000000 0.000000 0.000000 0.000000
1 1 2 1 8771.998831 134.293221 7.059647 30.000000 1.000000 0.000000 0.000000 0.000000
1 1 2 1 8771.998831 134.293005 7.062606 30.000000 1.000000 0.000000 0.000000 0.000000
1 1 2 1 8771.998831 134.298635 7.065831 30.000000 1.000000 0.000000 0.000000 0.000000
1 1 2 1 8771.998831 134.293904 7.063009 30.000000 1.000000 0.000000 0.000000 0.000000
1 1 2 1 8771.998831 134.291712 7.065007 30.000000 1.000000 0.000000 0.000000 0.000000
1 1 2 1 8771.998831 134.292769 7.061595 30.000000 1.000000 0.000000 0.000000 0.000000
1 1 2 1 8771.998831 134.296941 7.067555 30.000000 1.000000 0.000000 0.000000 0.000000
1 1 2 1 8771.998831 134.296331 7.056905 30.000000 1.000000 0.000000 0.000000 0.000000
1 1 2 1 8771.998831 134.293581 7.061252 30.000000 1.000000 0.000000 0.000000 0.000000
1 1 2 1 8771.998831 134.298663 7.064575 30.000000 1.000000 0.000000 0.000000 0.000000
1 1 2 1 8771.998831 134.297370 7.059994 30.000000 1.000000 0.000000 0.000000 0.000000
1 1 2 1 8771.998831 134.292276 7.071295 30.000000 1.000000 0.000000 0.000000 0.000000
1 1 2 1 8771.998831 134.296309 7.064908 30.000000 1.000000 0.000000 0.000000 0.000000
1 1 2 1 8771.998831 134.299303 7.068469 30.000000 1.000000 0.000000 0.000000 0.000000
1 1 2 1 8771.998831 134.291792 7.049553 30.000000 1.000000 0.000000 0.000000 0.000000
1 1 2 1 8771.998831 134.296193 7.061204 30.000000 1.000000 0.000000 0.000000 0.000000
1 1 2 1 8771.998831 134.292361 7.061386 30.000000 1.000000 0.000000 0.000000 0.000000
1 1 2 1 8771.998831 134.294257 7.051610 30.000000 1.000000 0.000000 0.000000 0.000000
1 1 2 1 8771.998831 134.289156 7.052711 30.000000 1.000000 0.000000 0.000000 0.000000
1 1 2 1 8771.998831 134.293907 7.054108 30.000000 1.000000 0.000000 0.000000 0.000000
1 1 2 1 8771.998831 134.296503 7.061036 30.000000 1.000000 0.000000 0.000000 0.000000
1 1 2 1 8771.998831 134.290592 7.058493 30.000000 1.000000 0.000000 0.000000 0.000000
1 1 2 1 8771.998831 134.296555 7.056477 30.000000 1.000000 0.000000 0.000000 0.000000
1 1 2 1 8771.998831 134.294749 7.067230 30.000000 1.000000 0.000000 0.000000 0.000000
1 1 2 1 8771.998831 134.292810 7.064694 30.000000 1.000000 0.000000 0.000000 0.000000
1 1 2 1 8771.998831 134.291640 7.058055 30.000000 1.000000 0.000000 0.000000 0.000000
1 1 2 1 8771.998831 134.294599 7.056603 30.000000 1.000000 0.000000 0.000000 0.000000
1 1 2 1 8771.998831 134.290363 7.048976 30.000000 1.000000 0.000000 0.000000 0.000000
1 1 2 1 8771.998831 134.292337 7.049577 30.000000 1.000000 0.000000 0.000000 0.000000
[...]
1 1 2 1 8771.998831 134.645611 7.705942 30.000000 1.000000 0.000000 0.000000 0.000000
1 1 2 1 8771.998831 134.634662 7.717316 30.000000 1.000000 0.000000 0.000000 0.000000
1 1 2 1 8771.998831 134.643936 7.712614 30.000000 1.000000 0.000000 0.000000 0.000000
1 1 2 1 8771.998831 134.634356 7.718720 30.000000 1.000000 0.000000 0.000000 0.000000
1 1 2 1 8771.998831 134.640052 7.713382 30.000000 1.000000 0.000000 0.000000 0.000000
1 1 2 1 8771.998831 134.643875 7.705864 30.000000 1.000000 0.000000 0.000000 0.000000
1 1 2 1 8771.998831 134.635828 7.716371 30.000000 1.000000 0.000000 0.000000 0.000000
1 1 2 1 8771.998831 134.637015 7.712894 30.000000 1.000000 0.000000 0.000000 0.000000
1 1 2 1 8771.998831 134.645570 7.708064 30.000000 1.000000 0.000000 0.000000 0.000000
1 1 2 1 8771.998831 134.647103 7.702422 30.000000 1.000000 0.000000 0.000000 0.000000
1 1 2 1 8771.998831 134.639695 7.709536 30.000000 1.000000 0.000000 0.000000 0.000000
1 1 2 1 8771.998831 134.641305 7.711150 30.000000 1.000000 0.000000 0.000000 0.000000
1 1 2 1 8771.998831 134.635808 7.717317 30.000000 1.000000 0.000000 0.000000 0.000000
1 1 2 1 8771.998831 134.640888 7.715104 30.000000 1.000000 0.000000 0.000000 0.000000
1 1 2 1 8771.998831 134.644567 7.710072 30.000000 1.000000 0.000000 0.000000 0.000000
1 1 2 1 8771.998831 134.642933 7.709600 30.000000 1.000000 0.000000 0.000000 0.000000
1 1 2 1 8771.998831 134.641100 7.714745 30.000000 1.000000 0.000000 0.000000 0.000000
1 1 2 1 8771.998831 134.643560 7.711510 30.000000 1.000000 0.000000 0.000000 0.000000
1 1 2 1 8771.998831 134.639657 7.718450 30.000000 1.000000 0.000000 0.000000 0.000000
1 1 2 1 8771.998831 134.636790 7.714782 30.000000 1.000000 0.000000 0.000000 0.000000
1 1 2 1 8771.998831 134.636442 7.713876 30.000000 1.000000 0.000000 0.000000 0.000000
1 1 2 1 8771.998831 134.640590 7.708101 30.000000 1.000000 0.000000 0.000000 0.000000
1 1 2 1 8771.998831 134.640933 7.715024 30.000000 1.000000 0.000000 0.000000 0.000000
1 1 2 1 8771.998831 134.638087 7.707885 30.000000 1.000000 0.000000 0.000000 0.000000
1 1 2 1 8771.998831 134.642462 7.706047 30.000000 1.000000 0.000000 0.000000 0.000000
1 1 2 1 8771.998831 134.640155 7.709969 30.000000 1.000000 0.000000 0.000000 0.000000
1 1 2 1 8771.998831 134.646808 7.704247 30.000000 1.000000 0.000000 0.000000 0.000000
1 1 2 1 8771.998831 134.642844 7.708813 30.000000 1.000000 0.000000 0.000000 0.000000
1 1 2 1 8771.998831 134.647086 7.703999 30.000000 1.000000 0.000000 0.000000 0.000000
1 1 2 1 8771.998831 134.642695 7.707557 30.000000 1.000000 0.000000 0.000000 0.000000
1 1 2 1 8771.998831 134.642317 7.710323 30.000000 1.000000 0.000000 0.000000 0.000000
1 1 2 1 8771.998831 134.644848 7.708669 30.000000 1.000000 0.000000 0.000000 0.000000
1 1 2 1 8771.998831 134.644028 7.714721 30.000000 1.000000 0.000000 0.000000 0.000000
1 1 2 1 8771.998831 134.645062 7.705404 30.000000 1.000000 0.000000 0.000000 0.000000
1 1 2 1 8771.998831 134.645131 7.702982 30.000000 1.000000 0.000000 0.000000 0.000000
1 1 2 1 8771.998831 134.639106 7.712612 30.000000 1.000000 0.000000 0.000000 0.000000
1 1 2 1 8771.998831 134.640306 7.716078 30.000000 1.000000 0.000000 0.000000 0.000000
1 1 2 1 8771.998831 134.646288 7.703213 30.000000 1.000000 0.000000 0.000000 0.000000
1 1 2 1 8771.998831 134.645781 7.706144 30.000000 1.000000 0.000000 0.000000 0.000000
1 1 2 1 8771.998831 134.644294 7.709032 30.000000 1.000000 0.000000 0.000000 0.000000
1 1 2 1 8771.998831 134.643895 7.714768 30.000000 1.000000 0.000000 0.000000 0.000000
1 1 2 1 8771.998831 134.642048 7.711087 30.000000 1.000000 0.000000 0.000000 0.000000
1 1 2 1 8771.998831 134.642356 7.714989 30.000000 1.000000 0.000000 0.000000 0.000000
1 1 2 1 8771.998831 134.641446 7.709166 30.000000 1.000000 0.000000 0.000000 0.000000
1 1 2 1 8771.998831 134.644767 7.706253 30.000000 1.000000 0.000000 0.000000 0.000000
1 1 2 1 8771.998831 134.632477 7.716842 30.000000 1.000000 0.000000 0.000000 0.000000
1 1 2 1 8771.998831 134.642391 7.707049 30.000000 1.000000 0.000000 0.000000 0.000000
1 1 2 1 8771.998831 134.647068 7.704748 30.000000 1.000000 0.000000 0.000000 0.000000
1 1 2 1 8771.998831 134.633220 7.716904 30.000000 1.000000 0.000000 0.000000 0.000000
1 1 2 1 8771.998831 134.646948 7.704305 30.000000 1.000000 0.000000 0.000000 0.000000
1 1 2 1 8771.998831 134.637212 7.718304 30.000000 1.000000 0.000000 0.000000 0.000000
1 1 2 1 8771.998831 134.644917 7.703141 30.000000 1.000000 0.000000 0.000000 0.000000
1 1 2 1 8771.998831 134.644983 7.709709 30.000000 1.000000 0.000000 0.000000 0.000000
1 1 2 1 8771.998831 134.632482 7.717346 30.000000 1.000000 0.000000 0.000000 0.000000
1 1 2 1 8771.998831 134.641519 7.717087 30.000000 1.000000 0.000000 0.000000 0.000000
1 1 2 1 8771.998831 134.643890 7.703976 30.000000 1.000000 0.000000 0.000000 0.000000
1 1 2 1 8771.998831 134.643875 7.706463 30.000000 1.000000 0.000000 0.000000 0.000000
1 1 2 1 8771.998831 134.643435 7.713088 30.000000 1.000000 0.000000 0.000000 0.000000
1 1 2 1 8771.998831 134.634396 7.718167 30.000000 1.000000 0.000000 0.000000 0.000000
1 1 2 1 8771.998831 134.633875 7.719030 30.000000 1.000000 0.000000 0.000000 0.000000
1 1 2 1 8771.998831 134.637838 7.716649 30.000000 1.000000 0.000000 0.000000 0.000000
1 1 2 1 8771.998831 134.638550 7.709159 30.000000 1.000000 0.000000 0.000000 0.000000
1 1 2 1 8771.998831 134.639924 7.717294 30.000000 1.000000 0.000000 0.000000 0.000000
1 1 2 1 8771.998831 134.640569 7.707302 30.000000 1.000000 0.000000 0.000000 0.000000
1 1 2 1 8771.998831 134.638381 7.710946 30.000000 1.000000 0.000000 0.000000 0.000000
1 1 2 1 8771.998831 134.635900 7.714491 30.000000 1.000000 0.000000 0.000000 0.000000
1 1 2 1 8771.998831 134.643717 7.711846 30.000000 1.000000 0.000000 0.000000 0.000000
1 1 2 1 8771.998831 134.639218 7.717836 30.000000 1.000000 0.000000 0.000000 0.000000
1 1 2 1 8771.998831 134.632466 7.716862 30.000000 1.000000 0.000000 0.000000 0.000000
1 1 2 1 8771.998831 134.637677 7.708704 30.000000 1.000000 0.000000 0.000000 0.000000
1 1 2 1 8771.998831 134.640232 7.707021 30.000000 1.000000 0.000000 0.000000 0.000000
1 1 2 1 8771.998831 134.641284 7.716805 30.000000 1.000000 0.000000 0.000000 0.000000
1 1 2 1 8771.998831 134.638877 7.709898 30.000000 1.000000 0.000000 0.000000 0.000000
1 1 2 1 8771.998831 134.646273 7.703438 30.000000 1.000000 0.000000 0.000000 0.000000
1 1 2 1 8771.998831 134.636382 7.717341 30.000000 1.000000 0.000000 0.000000 0.000000
1 1 2 1 8771.998831 134.642377 7.710191 30.000000 1.000000 0.000000 0.000000 0.000000
1 1 2 1 8771.998831 134.637261 7.713631 30.000000 1.000000 0.000000 0.000000 0.000000
1 1 2 1 8771.998831 134.641563 7.713474 30.000000 1.000000 0.000000 0.000000 0.000000
1 1 2 1 8771.998831 134.631249 7.716759 30.000000 1.000000 0.000000 0.000000 0.000000
1 1 2 1 8771.998831 134.632255 7.716429 30.000000 1.000000 0.000000 0.000000 0.000000
1 1 2 1 8771.998831 134.640273 7.714447 30.000000 1.000000 0.000000 0.000000 0.000000
1 1 2 1 8771.998831 134.642838 7.705233 30.000000 1.000000 0.000000 0.000000 0.000000
1 1 2 1 8771.998831 134.645229 7.704078 30.000000 1.000000 0.000000 0.000000 0.000000
1 1 2 1 8771.998831 134.636679 7.714970 30.000000 1.000000 0.000000 0.000000 0.000000
1 1 2 1 8771.998831 134.643657 7.703276 30.000000 1.000000 0.000000 0.000000 0.000000
1 1 2 1 8771.998831 134.632161 7.717388 30.000000 1.000000 0.000000 0.000000 0.000000
1 1 2 1 8771.998831 134.639629 7.718349 30.000000 1.000000 0.000000 0.000000 0.000000
1 1 2 1 8771.998831 134.646527 7.703902 30.000000 1.000000 0.000000 0.000000 0.000000
1 1 2 1 8771.998831 134.637329 7.718696 30.000000 1.000000 0.000000 0.000000 0.000000
1 1 2 1 8771.998831 134.634865 7.718323 30.000000 1.000000 0.000000 0.000000 0.000000
1 1 2 1 8771.998831 134.647452 7.704763 30.000000 1.000000 0.000000 0.000000 0.000000
1 1 2 1 8771.998831 134.644260 7.706741 30.000000 1.000000 0.000000 0.000000 0.000000
1 1 2 1 8771.998831 134.641180 7.716985 30.000000 1.000000 0.000000 0.000000 0.000000
1 1 2 1 8771.998831 134.645822 7.705798 30.000000 1.000000 0.000000 0.000000 0.000000
1 1 2 1 8771.998831 134.642612 7.713881 30.000000 1.000000 0.000000 0.000000 0.000000
1 1 2 1 8771.998831 134.644987 7.706025 30.000000 1.000000 0.000000 0.000000 0.000000
1 1 2 1 8771.998831 134.642016 7.714821 30.000000 1.000000 0.000000 0.000000 0.000000
1 1 2 1 8771.998831 134.637873 7.708019 30.000000 1.000000 0.000000 0.000000 0.000000
1 1 2 1 8771.998831 134.638147 7.715708 30.000000 1.000000 0.000000 0.000000 0.000000
1 1 2 1 8771.998831 134.641401 7.707557 30.000000 1.000000 0.000000 0.000000 0.000000
1 1 2 1 8771.998831 134.635414 7.718541 30.000000 1.000000 0.000000 0.000000 0.000000
1 1 2 1 8771.998831 134.641709 7.714239 30.000000 1.000000 0.000000 0.000000 0.000000
1 1 2 1 8771.998831 134.635636 7.716902 30.000000 1.000000 0.000000 0.000000 0.000000
1 1 2 1 8771.998831 134.636842 7.716015 30.000000 1.000000 0.000000 0.000000 0.000000
1 1 2 1 8771.998831 134.642905 7.712410 30.000000 1.000000 0.000000 0.000000 0.000000
1 1 2 1 8771.998831 134.644269 7.713622 30.000000 1.000000 0.000000 0.000000 0.000000
1 1 2 1 8771.998831 134.643400 7.704336 30.000000 1.000000 0.000000 0.000000 0.000000
1 1 2 1 8771.998831 134.638283 7.707806 30.000000 1.000000 0.000000 0.000000 0.000000
1 1 2 1 8771.998831 134.643713 7.705096 30.000000 1.000000 0.000000 0.000000 0.000000
1 1 2 1 8771.998831 134.640519 7.711340 30.000000 1.000000 0.000000 0.000000 0.000000
1 1 2 1 8771.998831 134.640748 7.717317 30.000000 1.000000 0.000000 0.000000 0.000000
1 1 2 1 8771.998831 134.642933 7.709501 30.000000 1.000000 0.000000 0.000000 0.000000
1 1 2 1 8771.998831 134.636621 7.714166 30.000000 1.000000 0.000000 0.000000 0.000000
1 1 2 1 8771.998831 134.641699 7.711094 30.000000 1.000000 0.000000 0.000000 0.000000
1 1 2 1 8771.998831 134.643000 7.707854 30.000000 1.000000 0.000000 0.000000 0.000000
1 1 2 1 8771.998831 134.641561 7.712002 30.000000 1.000000 0.000000 0.000000 0.000000
1 1 2 1 8771.998831 134.642993 7.706718 30.000000 1.000000 0.000000 0.000000 0.000000
1 1 2 1 8771.998831 134.640440 7.713783 30.000000 1.000000 0.000000 0.000000 0.000000
1 1 2 1 8771.998831 134.640725 7.713405 30.000000 1.000000 0.000000 0.000000 0.000000
1 1 2 1 8771.998831 134.635040 7.718734 30.000000 1.000000 0.000000 0.000000 0.000000
1 1 2 1 8771.998831 134.640875 7.717882 30.000000 1.000000 0.000000 0.000000 0.000000
1 1 2 1 8771.998831 134.640391 7.716025 30.000000 1.000000 0.000000 0.000000 0.000000
1 1 2 1 8771.998831 134.632019 7.718311 30.000000 1.000000 0.000000 0.000000 0.000000
1 1 2 1 8771.998831 134.636481 7.718565 30.000000 1.000000 0.000000 0.000000 0.000000
1 1 2 1 8771.998831 134.638953 7.714464 30.000000 1.000000 0.000000 0.000000 0.000000
1 1 2 1 8771.998831 134.639629 7.709108 30.000000 1.000000 0.000000 0.000000 0.000000
1 1 2 1 8771.998831 134.638781 7.713576 30.000000 1.000000 0.000000 0.000000 0.000000
1 1 2 1 8771.998831 134.637350 7.717538 30.000000 1.000000 0.000000 0.000000 0.000000
1 1 2 1 8771.998831 134.645435 7.705437 30.000000 1.000000 0.000000 0.000000 0.000000
1 1 2 1 8771.998831 134.632761 7.717112 30.000000 1.000000 0.000000 0.000000 0.000000
1 1 2 1 8771.998831 134.644018 7.709301 30.000000 1.000000 0.000000 0.000000 0.000000
1 1 2 1 8771.998831 134.646254 7.704536 30.000000 1.000000 0.000000 0.000000 0.000000
1 1 2 1 8771.998831 134.639408 7.718115 30.000000 1.000000 0.000000 0.000000 0.000000
1 1 2 1 8771.998831 134.639079 7.708028 30.000000 1.000000 0.000000 0.000000 0.000000
1 1 2 1 8771.998831 134.641131 7.713354 30.000000 1.000000 0.000000 0.000000 0.000000
1 1 2 1 8771.998831 134.636072 7.717790 30.000000 1.000000 0.000000 0.000000 0.000000
1 1 2 1 8771.998831 134.639697 7.716773 30.000000 1.000000 0.000000 0.000000 0.000000
1 1 2 1 8771.998831 134.645706 7.705830 30.000000 1.000000 0.000000 0.000000 0.000000
1 1 2 1 8771.998831 134.642442 7.715073 30.000000 1.000000 0.000000 0.000000 0.000000
1 1 2 1 8771.998831 134.644653 7.711709 30.000000 1.000000 0.000000 0.000000 0.000000
1 1 2 1 8771.998831 134.641820 7.715565 30.000000 1.000000 0.000000 0.000000 0.000000
1 1 2 1 8771.998831 134.641804 7.710362 30.000000 1.000000 0.000000 0.000000 0.000000
1 1 2 1 8771.998831 134.635768 7.714980 30.000000 1.000000 0.000000 0.000000 0.000000
1 1 2 1 8771.998831 134.643261 7.708077 30.000000 1.000000 0.000000 0.000000 0.000000
1 1 2 1 8771.998831 134.634797 7.717332 30.000000 1.000000 0.000000 0.000000 0.000000
1 1 2 1 8771.998831 134.644726 7.710838 30.000000 1.000000 0.000000 0.000000 0.000000
1 1 2 1 8771.998831 134.641730 7.707643 30.000000 1.000000 0.000000 0.000000 0.000000
1 1 2 1 8771.998831 134.643463 7.714505 30.000000 1.000000 0.000000 0.000000 0.000000
1 1 2 1 8771.998831 134.645134 7.705165 30.000000 1.000000 0.000000 0.000000 0.000000
1 1 2 1 8771.998831 134.639138 7.712599 30.000000 1.000000 0.000000 0.000000 0.000000
1 1 2 1 8771.998831 134.643724 7.711729 30.000000 1.000000 0.000000 0.000000 0.000000
1 1 2 1 8771.998831 134.642402 7.714394 30.000000 1.000000 0.000000 0.000000 0.000000
1 1 2 1 8771.998831 134.644411 7.710237 30.000000 1.000000 0.000000 0.000000 0.000000
1 1 2 1 8771.998831 134.638040 7.719069 30.000000 1.000000 0.000000 0.000000 0.000000
1 1 2 1 8771.998831 134.644050 7.705822 30.000000 1.000000 0.000000 0.000000 0.000000
1 1 2 1 8771.998831 134.638170 7.717662 30.000000 1.000000 0.000000 0.000000 0.000000
1 1 2 1 8771.998831 134.637302 7.717251 30.000000 1.000000 0.000000 0.000000 0.000000
1 1 2 1 8771.998831 134.642087 7.713872 30.000000 1.000000 0.000000 0.000000 0.000000
1 1 2 1 8771.998831 134.645899 7.702424 30.000000 1.000000 0.000000 0.000000 0.000000
1 1 2 1 8771.998831 134.646207 7.706231 30.000000 1.000000 0.000000 0.000000 0.000000

!1 0 1 1 0.00 116.0 130.0 14.000 0.000000 0.000000 0.000000 0.000000

!      1  0  1  10   0.00  120.0  150.0   15.000    0.00     0.01     0.0  0.000


!      1  0  1  10   0.00  120.0  150.0   15.000    0.00     0.01     0.0  0.000

 
!
!  GLOSSARY:
!  =========
!
!  This input file provides the initial locations of the float trajectories
!  to compute.
!
!------------------------------------------------------------------------------
! Control Switches.
!------------------------------------------------------------------------------
!
! Lfloats   Switch to control the computation of floats trajectories within
!             nested and/or multiple connected grids. Ngrids values are
!             expected. By default this switch is set to TRUE in "mod_scalars"
!             for all grids when the CPP option FLOATS is activated. The
!             USER can control which grid to process by turning on/off this
!             switch.
!
! Fprint    Switch to control the printing of floats positions to standard
!             output file. This switch can be used to turn of the printing
!             of information whe thousands of floats are released.  This
!             information is still in output floats NetCDF file.
!
! FRREC     Flag to indicate re-start from a previous solution.  Use
!             FRREC=0 for new solutions. In a re-start solution, FRREC
!             is the time index in the floats NetCDF file assigned for
!             initialization.  If FRREC is negative (say FRREC=-1), the
!             floats will re-start from the most recent time record.
!             That is, the initialization record is assigned internally.
!
!------------------------------------------------------------------------------
! Biological behavior.
!------------------------------------------------------------------------------
!
! FBIONAM   If applicable, input script file name containing biological floats
!              behavior model parameters.
!
!------------------------------------------------------------------------------
! Number of floats.
!------------------------------------------------------------------------------
!
!  NFLOATS   Number of floats to release in each nested grid.  Provide
!              the exact number of floats.  These values are used to
!              dynamically allocate the arrays in FLOATS array structure.
!
!------------------------------------------------------------------------------
! Initial float location KEYWORDS.  The model variable name is not used as
! keyword in some parameters.  However, it namce is provided in brackets.
!------------------------------------------------------------------------------
!
!  G         Nested grid number [ng].
!
!  C         Initial horizontal location coordinate type [Fcoor]:
!
!              Fcoor = 0,  rho grid units
!                             0.5 =< Fx0 =< Lm(ng)+0.5,
!                             0.5 =< Fy0 =< Mm(ng)+0.5
!
!              Fcoor = 1,  Fx0 is longitude (west values are negative).
!                          Fy0 is latitude (south values are negative).
!
!  T         Float trajectory type [Ftype]:
!
!              Ftype = 1,  3D Lagrangian floats.
!                          (flt_Lagran)
!
!              Ftype = 2,  Isobaric floats, p=g*(z+zeta)=constant.
!                          (flt_Isobar)
!
!              Ftype = 3,  Geopotential floats, constant depth.
!                          (flt_Geopot)
!
!  N         Number of floats [Fcount] to be released at the (Fx0,Fy0,Fz0)
!              location.  It must be equal or greater than one. If Fcount
!              is greater than one, a cluster distribution of floats
!              centered at (Fx0,Fy0,Fz0) is activated.
!
!              NOTE:  The total number of floats trajectories to compute
!              ====   must add to NFLOATS.
!
!  Ft0       Time (days) of float release after model initialization (real).
!
!  Fx0       Initial float x-location (real; grid units or longitude).
!
!  Fy0       Initial float y-location (real; grid units or latitude).
!
!  Fz0       Initial float z-location (real; vertical level or depth).
!              If Fz0 is less than or equal to zero, Fz0 is the initial
!              depth in meters.  Otherwise, if Fz0 is positive and
!
!                             0 < Fz0 =< N(ng),
!
!              Fz0 is the initial position relative to the W grid
!              (0 = bottom; N = surface).
!
!              If the float trajectory type is Isobaric (Ftype=2) or
!              Geopotential (Ftype=3), Fz0 must be a negative number
!              representing depth in meters. If the float type is
!              Lagrangian (Ftype=1), Fz0 can be a level (positive) or
!              a depth in meters (negative).
!
!              WARNING: If the depth in meters at particular horizontal
!                       is not bounded, the floats are released at the
!                       surface.
!
!  Fdt       Float cluster release time interval (real; days), only used
!              if Fcount > 1:
!
!              Fdt = 0,  Fcount floats will be deployed simultaneously
!                        with a distribution centered at (Fx0,Fy0,Fz0)
!                        and defined by (Fdx,Fdy,Fdz).
!
!              Fdt > 0,  a cluster of floats will be deployed from
!                        (Fx0,Fy0,Fz0) at Fdt intervals until Fcount
!                        floats are released.
!
!  Fdx       Cluster x-distribution parameter (real), only used if
!              Fcount > 1 and Fdt = 0.
!
!  Fdy       Cluster y-distribution parameter (real), only used if
!              Fcount > 1 and Fdt = 0.
!
!  Fdz       Cluster z-distribution parameter (real), only used if
!              Fcount > 1 and Fdt = 0.
!
!            NOTE:  the parameters (Fdx,Fdy,Fdz) can be used to specify
!            ====   any type of cluster distribution, for instance:
!
!                   * Lines of floats:
!
!                         Fdx > 0,  Fdy = 0,  Fdz = 0
!                         Fdx = 0,  Fdy > 0,  Fdz = 0
!                         Fdx = 0,  Fdy = 0,  Fdz > 0
!
!             The USER can use any of these parameters to design any
!             cluster distribution in routine "init_floats.F".
